2
Properties=species:S:1:pos:R:3:forces:R:3 energy=1401.7159351928906 pbc="F F F"
Al       0.00000000       0.00000000       0.00000000       0.00000000       0.00000000  -18204.75195312
Al       0.00000000       0.00000000       0.18000000       0.00000000       0.00000000   18204.75195312
2
Properties=species:S:1:pos:R:3:forces:R:3 energy=720.8126148803906 pbc="F F F"
Al       0.00000000       0.00000000       0.00000000       0.00000000       0.00000000   -7056.71875000
Al       0.00000000       0.00000000       0.23878788       0.00000000       0.00000000    7056.71875000
2
Properties=species:S:1:pos:R:3:forces:R:3 energy=437.4210133178906 pbc="F F F"
Al       0.00000000       0.00000000       0.00000000       0.00000000       0.00000000   -3191.27343750
Al       0.00000000       0.00000000       0.29757576       0.00000000       0.00000000    3191.27343750
2
Properties=species:S:1:pos:R:3:forces:R:3 energy=302.67189833399186 pbc="F F F"
Al       0.00000000       0.00000000       0.00000000       0.00000000       0.00000000   -1608.47717285
Al       0.00000000       0.00000000       0.35636364       0.00000000       0.00000000    1608.47717285
2
Properties=species:S:1:pos:R:3:forces:R:3 energy=231.83629654002254 pbc="F F F"
Al       0.00000000       0.00000000       0.00000000       0.00000000       0.00000000    -892.09405518
Al       0.00000000       0.00000000       0.41515152       0.00000000       0.00000000     892.09405518
2
Properties=species:S:1:pos:R:3:forces:R:3 energy=190.22765397456882 pbc="F F F"
Al       0.00000000       0.00000000       0.00000000       0.00000000       0.00000000    -570.15155029
Al       0.00000000       0.00000000       0.47393939       0.00000000       0.00000000     570.15155029
2
Properties=species:S:1:pos:R:3:forces:R:3 energy=160.41671040906706 pbc="F F F"
Al       0.00000000       0.00000000       0.00000000       0.00000000       0.00000000    -474.92642212
Al       0.00000000       0.00000000       0.53272727       0.00000000       0.00000000     474.92642212
2
Properties=species:S:1:pos:R:3:forces:R:3 energy=131.54831752808758 pbc="F F F"
Al       0.00000000       0.00000000       0.00000000       0.00000000       0.00000000    -516.95684814
Al       0.00000000       0.00000000       0.59151515       0.00000000       0.00000000     516.95684814
2
Properties=species:S:1:pos:R:3:forces:R:3 energy=102.01343604399665 pbc="F F F"
Al       0.00000000       0.00000000       0.00000000       0.00000000       0.00000000    -475.98580933
Al       0.00000000       0.00000000       0.65030303       0.00000000       0.00000000     475.98580933
2
Properties=species:S:1:pos:R:3:forces:R:3 energy=72.83081138549323 pbc="F F F"
Al       0.00000000       0.00000000       0.00000000       0.00000000       0.00000000    -509.77288818
Al       0.00000000       0.00000000       0.70909091       0.00000000       0.00000000     509.77288818
2
Properties=species:S:1:pos:R:3:forces:R:3 energy=44.85291399487603 pbc="F F F"
Al       0.00000000       0.00000000       0.00000000       0.00000000       0.00000000    -422.64556885
Al       0.00000000       0.00000000       0.76787879       0.00000000       0.00000000     422.64556885
2
Properties=species:S:1:pos:R:3:forces:R:3 energy=26.68664888100815 pbc="F F F"
Al       0.00000000       0.00000000       0.00000000       0.00000000       0.00000000    -196.80632019
Al       0.00000000       0.00000000       0.82666667       0.00000000       0.00000000     196.80632019
2
Properties=species:S:1:pos:R:3:forces:R:3 energy=17.95284088941057 pbc="F F F"
Al       0.00000000       0.00000000       0.00000000       0.00000000       0.00000000    -110.88467407
Al       0.00000000       0.00000000       0.88545455       0.00000000       0.00000000     110.88467407
2
Properties=species:S:1:pos:R:3:forces:R:3 energy=13.207679620488083 pbc="F F F"
Al       0.00000000       0.00000000       0.00000000       0.00000000       0.00000000     -56.64949799
Al       0.00000000       0.00000000       0.94424242       0.00000000       0.00000000      56.64949799
2
Properties=species:S:1:pos:R:3:forces:R:3 energy=10.511021552392048 pbc="F F F"
Al       0.00000000       0.00000000       0.00000000       0.00000000       0.00000000     -39.04127502
Al       0.00000000       0.00000000       1.00303030       0.00000000       0.00000000      39.04127502
2
Properties=species:S:1:pos:R:3:forces:R:3 energy=8.479302772124518 pbc="F F F"
Al       0.00000000       0.00000000       0.00000000       0.00000000       0.00000000     -29.97329330
Al       0.00000000       0.00000000       1.06181818       0.00000000       0.00000000      29.97329330
2
Properties=species:S:1:pos:R:3:forces:R:3 energy=6.9832327812993515 pbc="F F F"
Al       0.00000000       0.00000000       0.00000000       0.00000000       0.00000000     -21.34706116
Al       0.00000000       0.00000000       1.12060606       0.00000000       0.00000000      21.34706116
2
Properties=species:S:1:pos:R:3:forces:R:3 energy=5.887627418604536 pbc="F F F"
Al       0.00000000       0.00000000       0.00000000       0.00000000       0.00000000     -16.67958641
Al       0.00000000       0.00000000       1.17939394       0.00000000       0.00000000      16.67958641
2
Properties=species:S:1:pos:R:3:forces:R:3 energy=4.959341580119607 pbc="F F F"
Al       0.00000000       0.00000000       0.00000000       0.00000000       0.00000000     -15.14978027
Al       0.00000000       0.00000000       1.23818182       0.00000000       0.00000000      15.14978027
2
Properties=species:S:1:pos:R:3:forces:R:3 energy=4.101218422740309 pbc="F F F"
Al       0.00000000       0.00000000       0.00000000       0.00000000       0.00000000     -13.97164249
Al       0.00000000       0.00000000       1.29696970       0.00000000       0.00000000      13.97164249
2
Properties=species:S:1:pos:R:3:forces:R:3 energy=3.326448399670543 pbc="F F F"
Al       0.00000000       0.00000000       0.00000000       0.00000000       0.00000000     -12.34205341
Al       0.00000000       0.00000000       1.35575758       0.00000000       0.00000000      12.34205341
2
Properties=species:S:1:pos:R:3:forces:R:3 energy=2.647475519892551 pbc="F F F"
Al       0.00000000       0.00000000       0.00000000       0.00000000       0.00000000     -10.83505440
Al       0.00000000       0.00000000       1.41454545       0.00000000       0.00000000      10.83505440
2
Properties=species:S:1:pos:R:3:forces:R:3 energy=2.0403630435732425 pbc="F F F"
Al       0.00000000       0.00000000       0.00000000       0.00000000       0.00000000      -9.92870808
Al       0.00000000       0.00000000       1.47333333       0.00000000       0.00000000       9.92870808
2
Properties=species:S:1:pos:R:3:forces:R:3 energy=1.4689745157457006 pbc="F F F"
Al       0.00000000       0.00000000       0.00000000       0.00000000       0.00000000      -9.58088684
Al       0.00000000       0.00000000       1.53212121       0.00000000       0.00000000       9.58088684
2
Properties=species:S:1:pos:R:3:forces:R:3 energy=0.9093465633880623 pbc="F F F"
Al       0.00000000       0.00000000       0.00000000       0.00000000       0.00000000      -9.46296024
Al       0.00000000       0.00000000       1.59090909       0.00000000       0.00000000       9.46296024
2
Properties=species:S:1:pos:R:3:forces:R:3 energy=0.3593463056070849 pbc="F F F"
Al       0.00000000       0.00000000       0.00000000       0.00000000       0.00000000      -9.19882774
Al       0.00000000       0.00000000       1.64969697       0.00000000       0.00000000       9.19882774
2
Properties=species:S:1:pos:R:3:forces:R:3 energy=-0.16502543859652316 pbc="F F F"
Al       0.00000000       0.00000000       0.00000000       0.00000000       0.00000000      -8.57705021
Al       0.00000000       0.00000000       1.70848485       0.00000000       0.00000000       8.57705021
2
Properties=species:S:1:pos:R:3:forces:R:3 energy=-0.6426731990627236 pbc="F F F"
Al       0.00000000       0.00000000       0.00000000       0.00000000       0.00000000      -7.63171864
Al       0.00000000       0.00000000       1.76727273       0.00000000       0.00000000       7.63171864
2
Properties=species:S:1:pos:R:3:forces:R:3 energy=-1.0593587182378645 pbc="F F F"
Al       0.00000000       0.00000000       0.00000000       0.00000000       0.00000000      -6.53363991
Al       0.00000000       0.00000000       1.82606061       0.00000000       0.00000000       6.53363991
2
Properties=species:S:1:pos:R:3:forces:R:3 energy=-1.4109372379238145 pbc="F F F"
Al       0.00000000       0.00000000       0.00000000       0.00000000       0.00000000      -5.43608570
Al       0.00000000       0.00000000       1.88484848       0.00000000       0.00000000       5.43608570
2
Properties=species:S:1:pos:R:3:forces:R:3 energy=-1.7000993756380611 pbc="F F F"
Al       0.00000000       0.00000000       0.00000000       0.00000000       0.00000000      -4.41808128
Al       0.00000000       0.00000000       1.94363636       0.00000000       0.00000000       4.41808128
2
Properties=species:S:1:pos:R:3:forces:R:3 energy=-1.9326211934223332 pbc="F F F"
Al       0.00000000       0.00000000       0.00000000       0.00000000       0.00000000      -3.51320434
Al       0.00000000       0.00000000       2.00242424       0.00000000       0.00000000       3.51320434
2
Properties=species:S:1:pos:R:3:forces:R:3 energy=-2.1157668757259955 pbc="F F F"
Al       0.00000000       0.00000000       0.00000000       0.00000000       0.00000000      -2.74054360
Al       0.00000000       0.00000000       2.06121212       0.00000000       0.00000000       2.74054360
2
Properties=species:S:1:pos:R:3:forces:R:3 energy=-2.257523343578641 pbc="F F F"
Al       0.00000000       0.00000000       0.00000000       0.00000000       0.00000000      -2.10385561
Al       0.00000000       0.00000000       2.12000000       0.00000000       0.00000000       2.10385561
2
Properties=species:S:1:pos:R:3:forces:R:3 energy=-2.365444667415669 pbc="F F F"
Al       0.00000000       0.00000000       0.00000000       0.00000000       0.00000000      -1.58491671
Al       0.00000000       0.00000000       2.17878788       0.00000000       0.00000000       1.58491671
2
Properties=species:S:1:pos:R:3:forces:R:3 energy=-2.44558669482552 pbc="F F F"
Al       0.00000000       0.00000000       0.00000000       0.00000000       0.00000000      -1.15373898
Al       0.00000000       0.00000000       2.23757576       0.00000000       0.00000000       1.15373898
2
Properties=species:S:1:pos:R:3:forces:R:3 energy=-2.502313394810859 pbc="F F F"
Al       0.00000000       0.00000000       0.00000000       0.00000000       0.00000000      -0.78508908
Al       0.00000000       0.00000000       2.29636364       0.00000000       0.00000000       0.78508908
2
Properties=species:S:1:pos:R:3:forces:R:3 energy=-2.5388408426229696 pbc="F F F"
Al       0.00000000       0.00000000       0.00000000       0.00000000       0.00000000      -0.46500319
Al       0.00000000       0.00000000       2.35515152       0.00000000       0.00000000       0.46500319
2
Properties=species:S:1:pos:R:3:forces:R:3 energy=-2.557805761709795 pbc="F F F"
Al       0.00000000       0.00000000       0.00000000       0.00000000       0.00000000      -0.18671225
Al       0.00000000       0.00000000       2.41393939       0.00000000       0.00000000       0.18671225
2
Properties=species:S:1:pos:R:3:forces:R:3 energy=-2.5615003763517374 pbc="F F F"
Al       0.00000000       0.00000000       0.00000000       0.00000000       0.00000000       0.05561233
Al       0.00000000       0.00000000       2.47272727       0.00000000       0.00000000      -0.05561233
2
Properties=species:S:1:pos:R:3:forces:R:3 energy=-2.5518219382788123 pbc="F F F"
Al       0.00000000       0.00000000       0.00000000       0.00000000       0.00000000       0.26964855
Al       0.00000000       0.00000000       2.53151515       0.00000000       0.00000000      -0.26964855
2
Properties=species:S:1:pos:R:3:forces:R:3 energy=-2.5301792032311967 pbc="F F F"
Al       0.00000000       0.00000000       0.00000000       0.00000000       0.00000000       0.46406162
Al       0.00000000       0.00000000       2.59030303       0.00000000       0.00000000      -0.46406162
2
Properties=species:S:1:pos:R:3:forces:R:3 energy=-2.497501576908652 pbc="F F F"
Al       0.00000000       0.00000000       0.00000000       0.00000000       0.00000000       0.64598250
Al       0.00000000       0.00000000       2.64909091       0.00000000       0.00000000      -0.64598250
2
Properties=species:S:1:pos:R:3:forces:R:3 energy=-2.4544131205685353 pbc="F F F"
Al       0.00000000       0.00000000       0.00000000       0.00000000       0.00000000       0.81820947
Al       0.00000000       0.00000000       2.70787879       0.00000000       0.00000000      -0.81820947
2
Properties=species:S:1:pos:R:3:forces:R:3 energy=-2.4015412428352705 pbc="F F F"
Al       0.00000000       0.00000000       0.00000000       0.00000000       0.00000000       0.97795618
Al       0.00000000       0.00000000       2.76666667       0.00000000       0.00000000      -0.97795618
2
Properties=species:S:1:pos:R:3:forces:R:3 energy=-2.339804670468944 pbc="F F F"
Al       0.00000000       0.00000000       0.00000000       0.00000000       0.00000000       1.11857212
Al       0.00000000       0.00000000       2.82545455       0.00000000       0.00000000      -1.11857212
2
Properties=species:S:1:pos:R:3:forces:R:3 energy=-2.2705231536143504 pbc="F F F"
Al       0.00000000       0.00000000       0.00000000       0.00000000       0.00000000       1.23392951
Al       0.00000000       0.00000000       2.88424242       0.00000000       0.00000000      -1.23392951
2
Properties=species:S:1:pos:R:3:forces:R:3 energy=-2.195239932873289 pbc="F F F"
Al       0.00000000       0.00000000       0.00000000       0.00000000       0.00000000       1.32323074
Al       0.00000000       0.00000000       2.94303030       0.00000000       0.00000000      -1.32323074
2
Properties=species:S:1:pos:R:3:forces:R:3 energy=-2.1153398322995765 pbc="F F F"
Al       0.00000000       0.00000000       0.00000000       0.00000000       0.00000000       1.39234674
Al       0.00000000       0.00000000       3.00181818       0.00000000       0.00000000      -1.39234674
2
Properties=species:S:1:pos:R:3:forces:R:3 energy=-2.031790785183935 pbc="F F F"
Al       0.00000000       0.00000000       0.00000000       0.00000000       0.00000000       1.44813061
Al       0.00000000       0.00000000       3.06060606       0.00000000       0.00000000      -1.44813061
2
Properties=species:S:1:pos:R:3:forces:R:3 energy=-1.9453151804385158 pbc="F F F"
Al       0.00000000       0.00000000       0.00000000       0.00000000       0.00000000       1.49151230
Al       0.00000000       0.00000000       3.11939394       0.00000000       0.00000000      -1.49151230
2
Properties=species:S:1:pos:R:3:forces:R:3 energy=-1.856734197301304 pbc="F F F"
Al       0.00000000       0.00000000       0.00000000       0.00000000       0.00000000       1.51912677
Al       0.00000000       0.00000000       3.17818182       0.00000000       0.00000000      -1.51912677
2
Properties=species:S:1:pos:R:3:forces:R:3 energy=-1.767068684921812 pbc="F F F"
Al       0.00000000       0.00000000       0.00000000       0.00000000       0.00000000       1.52813172
Al       0.00000000       0.00000000       3.23696970       0.00000000       0.00000000      -1.52813172
2
Properties=species:S:1:pos:R:3:forces:R:3 energy=-1.6774485371219 pbc="F F F"
Al       0.00000000       0.00000000       0.00000000       0.00000000       0.00000000       1.51747167
Al       0.00000000       0.00000000       3.29575758       0.00000000       0.00000000      -1.51747167
2
Properties=species:S:1:pos:R:3:forces:R:3 energy=-1.5890292884539434 pbc="F F F"
Al       0.00000000       0.00000000       0.00000000       0.00000000       0.00000000       1.48749983
Al       0.00000000       0.00000000       3.35454545       0.00000000       0.00000000      -1.48749983
2
Properties=species:S:1:pos:R:3:forces:R:3 energy=-1.5029034418615508 pbc="F F F"
Al       0.00000000       0.00000000       0.00000000       0.00000000       0.00000000       1.43979967
Al       0.00000000       0.00000000       3.41333333       0.00000000       0.00000000      -1.43979967
2
Properties=species:S:1:pos:R:3:forces:R:3 energy=-1.4200386874702746 pbc="F F F"
Al       0.00000000       0.00000000       0.00000000       0.00000000       0.00000000       1.37710309
Al       0.00000000       0.00000000       3.47212121       0.00000000       0.00000000      -1.37710309
2
Properties=species:S:1:pos:R:3:forces:R:3 energy=-1.3412143584380427 pbc="F F F"
Al       0.00000000       0.00000000       0.00000000       0.00000000       0.00000000       1.30297899
Al       0.00000000       0.00000000       3.53090909       0.00000000       0.00000000      -1.30297899
2
Properties=species:S:1:pos:R:3:forces:R:3 energy=-1.2669862392572004 pbc="F F F"
Al       0.00000000       0.00000000       0.00000000       0.00000000       0.00000000       1.22135806
Al       0.00000000       0.00000000       3.58969697       0.00000000       0.00000000      -1.22135806
2
Properties=species:S:1:pos:R:3:forces:R:3 energy=-1.1976835757154398 pbc="F F F"
Al       0.00000000       0.00000000       0.00000000       0.00000000       0.00000000       1.13602817
Al       0.00000000       0.00000000       3.64848485       0.00000000       0.00000000      -1.13602817
2
Properties=species:S:1:pos:R:3:forces:R:3 energy=-1.1334264366228848 pbc="F F F"
Al       0.00000000       0.00000000       0.00000000       0.00000000       0.00000000       1.05021679
Al       0.00000000       0.00000000       3.70727273       0.00000000       0.00000000      -1.05021679
2
Properties=species:S:1:pos:R:3:forces:R:3 energy=-1.0741644581753305 pbc="F F F"
Al       0.00000000       0.00000000       0.00000000       0.00000000       0.00000000       0.96637338
Al       0.00000000       0.00000000       3.76606061       0.00000000       0.00000000      -0.96637338
2
Properties=species:S:1:pos:R:3:forces:R:3 energy=-1.01973270426591 pbc="F F F"
Al       0.00000000       0.00000000       0.00000000       0.00000000       0.00000000       0.88614404
Al       0.00000000       0.00000000       3.82484848       0.00000000       0.00000000      -0.88614404
2
Properties=species:S:1:pos:R:3:forces:R:3 energy=-0.969885559441307 pbc="F F F"
Al       0.00000000       0.00000000       0.00000000       0.00000000       0.00000000       0.81046146
Al       0.00000000       0.00000000       3.88363636       0.00000000       0.00000000      -0.81046146
2
Properties=species:S:1:pos:R:3:forces:R:3 energy=-0.924344317334971 pbc="F F F"
Al       0.00000000       0.00000000       0.00000000       0.00000000       0.00000000       0.73973620
Al       0.00000000       0.00000000       3.94242424       0.00000000       0.00000000      -0.73973620
2
Properties=species:S:1:pos:R:3:forces:R:3 energy=-0.8828127018014408 pbc="F F F"
Al       0.00000000       0.00000000       0.00000000       0.00000000       0.00000000       0.67404294
Al       0.00000000       0.00000000       4.00121212       0.00000000       0.00000000      -0.67404294
2
Properties=species:S:1:pos:R:3:forces:R:3 energy=-0.8449962643524509 pbc="F F F"
Al       0.00000000       0.00000000       0.00000000       0.00000000       0.00000000       0.61331207
Al       0.00000000       0.00000000       4.06000000       0.00000000       0.00000000      -0.61331207
2
Properties=species:S:1:pos:R:3:forces:R:3 energy=-0.8106064277693089 pbc="F F F"
Al       0.00000000       0.00000000       0.00000000       0.00000000       0.00000000       0.55747712
Al       0.00000000       0.00000000       4.11878788       0.00000000       0.00000000      -0.55747712
2
Properties=species:S:1:pos:R:3:forces:R:3 energy=-0.7793539511827499 pbc="F F F"
Al       0.00000000       0.00000000       0.00000000       0.00000000       0.00000000       0.50657165
Al       0.00000000       0.00000000       4.17757576       0.00000000       0.00000000      -0.50657165
2
Properties=species:S:1:pos:R:3:forces:R:3 energy=-0.750945350042451 pbc="F F F"
Al       0.00000000       0.00000000       0.00000000       0.00000000       0.00000000       0.46076444
Al       0.00000000       0.00000000       4.23636364       0.00000000       0.00000000      -0.46076444
2
Properties=species:S:1:pos:R:3:forces:R:3 energy=-0.7250744469286329 pbc="F F F"
Al       0.00000000       0.00000000       0.00000000       0.00000000       0.00000000       0.42027634
Al       0.00000000       0.00000000       4.29515152       0.00000000       0.00000000      -0.42027634
2
Properties=species:S:1:pos:R:3:forces:R:3 energy=-0.7014241806982051 pbc="F F F"
Al       0.00000000       0.00000000       0.00000000       0.00000000       0.00000000       0.38524663
Al       0.00000000       0.00000000       4.35393939       0.00000000       0.00000000      -0.38524663
2
Properties=species:S:1:pos:R:3:forces:R:3 energy=-0.6796744313642609 pbc="F F F"
Al       0.00000000       0.00000000       0.00000000       0.00000000       0.00000000       0.35555804
Al       0.00000000       0.00000000       4.41272727       0.00000000       0.00000000      -0.35555804
2
Properties=species:S:1:pos:R:3:forces:R:3 energy=-0.6595233839014837 pbc="F F F"
Al       0.00000000       0.00000000       0.00000000       0.00000000       0.00000000       0.33073530
Al       0.00000000       0.00000000       4.47151515       0.00000000       0.00000000      -0.33073530
2
Properties=species:S:1:pos:R:3:forces:R:3 energy=-0.64070820180236 pbc="F F F"
Al       0.00000000       0.00000000       0.00000000       0.00000000       0.00000000       0.30994782
Al       0.00000000       0.00000000       4.53030303       0.00000000       0.00000000      -0.30994782
2
Properties=species:S:1:pos:R:3:forces:R:3 energy=-0.6230231310500803 pbc="F F F"
Al       0.00000000       0.00000000       0.00000000       0.00000000       0.00000000       0.29212424
Al       0.00000000       0.00000000       4.58909091       0.00000000       0.00000000      -0.29212424
2
Properties=species:S:1:pos:R:3:forces:R:3 energy=-0.6063259710982662 pbc="F F F"
Al       0.00000000       0.00000000       0.00000000       0.00000000       0.00000000       0.27613926
Al       0.00000000       0.00000000       4.64787879       0.00000000       0.00000000      -0.27613926
2
Properties=species:S:1:pos:R:3:forces:R:3 energy=-0.5905392176946057 pbc="F F F"
Al       0.00000000       0.00000000       0.00000000       0.00000000       0.00000000       0.26099461
Al       0.00000000       0.00000000       4.70666667       0.00000000       0.00000000      -0.26099461
2
Properties=species:S:1:pos:R:3:forces:R:3 energy=-0.5756372173719568 pbc="F F F"
Al       0.00000000       0.00000000       0.00000000       0.00000000       0.00000000       0.24596933
Al       0.00000000       0.00000000       4.76545455       0.00000000       0.00000000      -0.24596933
2
Properties=species:S:1:pos:R:3:forces:R:3 energy=-0.561624168998652 pbc="F F F"
Al       0.00000000       0.00000000       0.00000000       0.00000000       0.00000000       0.23067610
Al       0.00000000       0.00000000       4.82424242       0.00000000       0.00000000      -0.23067610
2
Properties=species:S:1:pos:R:3:forces:R:3 energy=-0.5485219612631408 pbc="F F F"
Al       0.00000000       0.00000000       0.00000000       0.00000000       0.00000000       0.21507302
Al       0.00000000       0.00000000       4.88303030       0.00000000       0.00000000      -0.21507302
2
Properties=species:S:1:pos:R:3:forces:R:3 energy=-0.5363390679689084 pbc="F F F"
Al       0.00000000       0.00000000       0.00000000       0.00000000       0.00000000       0.19938679
Al       0.00000000       0.00000000       4.94181818       0.00000000       0.00000000      -0.19938679
2
Properties=species:S:1:pos:R:3:forces:R:3 energy=-0.5250721969576608 pbc="F F F"
Al       0.00000000       0.00000000       0.00000000       0.00000000       0.00000000       0.18401238
Al       0.00000000       0.00000000       5.00060606       0.00000000       0.00000000      -0.18401238
2
Properties=species:S:1:pos:R:3:forces:R:3 energy=-0.5146892237580276 pbc="F F F"
Al       0.00000000       0.00000000       0.00000000       0.00000000       0.00000000       0.16934770
Al       0.00000000       0.00000000       5.05939394       0.00000000       0.00000000      -0.16934770
2
Properties=species:S:1:pos:R:3:forces:R:3 energy=-0.5051415257032437 pbc="F F F"
Al       0.00000000       0.00000000       0.00000000       0.00000000       0.00000000       0.15566573
Al       0.00000000       0.00000000       5.11818182       0.00000000       0.00000000      -0.15566573
2
Properties=species:S:1:pos:R:3:forces:R:3 energy=-0.4963668254071066 pbc="F F F"
Al       0.00000000       0.00000000       0.00000000       0.00000000       0.00000000       0.14301860
Al       0.00000000       0.00000000       5.17696970       0.00000000       0.00000000      -0.14301860
2
Properties=species:S:1:pos:R:3:forces:R:3 energy=-0.48830916048786244 pbc="F F F"
Al       0.00000000       0.00000000       0.00000000       0.00000000       0.00000000       0.13124086
Al       0.00000000       0.00000000       5.23575758       0.00000000       0.00000000      -0.13124086
2
Properties=species:S:1:pos:R:3:forces:R:3 energy=-0.48092582275758966 pbc="F F F"
Al       0.00000000       0.00000000       0.00000000       0.00000000       0.00000000       0.11999683
Al       0.00000000       0.00000000       5.29454545       0.00000000       0.00000000      -0.11999683
2
Properties=species:S:1:pos:R:3:forces:R:3 energy=-0.47419699029201506 pbc="F F F"
Al       0.00000000       0.00000000       0.00000000       0.00000000       0.00000000       0.10891374
Al       0.00000000       0.00000000       5.35333333       0.00000000       0.00000000      -0.10891374
2
Properties=species:S:1:pos:R:3:forces:R:3 energy=-0.4681235489851459 pbc="F F F"
Al       0.00000000       0.00000000       0.00000000       0.00000000       0.00000000       0.09768090
Al       0.00000000       0.00000000       5.41212121       0.00000000       0.00000000      -0.09768090
2
Properties=species:S:1:pos:R:3:forces:R:3 energy=-0.46271806748930727 pbc="F F F"
Al       0.00000000       0.00000000       0.00000000       0.00000000       0.00000000       0.08614869
Al       0.00000000       0.00000000       5.47090909       0.00000000       0.00000000      -0.08614869
2
Properties=species:S:1:pos:R:3:forces:R:3 energy=-0.4579993693166984 pbc="F F F"
Al       0.00000000       0.00000000       0.00000000       0.00000000       0.00000000       0.07434414
Al       0.00000000       0.00000000       5.52969697       0.00000000       0.00000000      -0.07434414
2
Properties=species:S:1:pos:R:3:forces:R:3 energy=-0.4539784775225913 pbc="F F F"
Al       0.00000000       0.00000000       0.00000000       0.00000000       0.00000000       0.06247101
Al       0.00000000       0.00000000       5.58848485       0.00000000       0.00000000      -0.06247101
2
Properties=species:S:1:pos:R:3:forces:R:3 energy=-0.4506510106533768 pbc="F F F"
Al       0.00000000       0.00000000       0.00000000       0.00000000       0.00000000       0.05086220
Al       0.00000000       0.00000000       5.64727273       0.00000000       0.00000000      -0.05086220
2
Properties=species:S:1:pos:R:3:forces:R:3 energy=-0.4479861688505575 pbc="F F F"
Al       0.00000000       0.00000000       0.00000000       0.00000000       0.00000000       0.03992309
Al       0.00000000       0.00000000       5.70606061       0.00000000       0.00000000      -0.03992309
2
Properties=species:S:1:pos:R:3:forces:R:3 energy=-0.44593245093693357 pbc="F F F"
Al       0.00000000       0.00000000       0.00000000       0.00000000       0.00000000       0.03007957
Al       0.00000000       0.00000000       5.76484848       0.00000000       0.00000000      -0.03007957
2
Properties=species:S:1:pos:R:3:forces:R:3 energy=-0.44441796273524853 pbc="F F F"
Al       0.00000000       0.00000000       0.00000000       0.00000000       0.00000000       0.02174816
Al       0.00000000       0.00000000       5.82363636       0.00000000       0.00000000      -0.02174816
2
Properties=species:S:1:pos:R:3:forces:R:3 energy=-0.44334110002865973 pbc="F F F"
Al       0.00000000       0.00000000       0.00000000       0.00000000       0.00000000       0.01528839
Al       0.00000000       0.00000000       5.88242424       0.00000000       0.00000000      -0.01528839
2
Properties=species:S:1:pos:R:3:forces:R:3 energy=-0.44257843646472467 pbc="F F F"
Al       0.00000000       0.00000000       0.00000000       0.00000000       0.00000000       0.01100969
Al       0.00000000       0.00000000       5.94121212       0.00000000       0.00000000      -0.01100969
2
Properties=species:S:1:pos:R:3:forces:R:3 energy=-0.44199816281888715 pbc="F F F"
Al       0.00000000       0.00000000       0.00000000       0.00000000       0.00000000       0.00916749
Al       0.00000000       0.00000000       6.00000000       0.00000000       0.00000000      -0.00916749
