2
Properties=species:S:1:pos:R:3:forces:R:3 energy=347.92021198953165 pbc="F F F"
B        0.00000000       0.00000000       0.00000000       0.00000000       0.00000000   -3679.77880859
B        0.00000000       0.00000000       0.18000000       0.00000000       0.00000000    3679.77880859
2
Properties=species:S:1:pos:R:3:forces:R:3 energy=204.20378132705304 pbc="F F F"
B        0.00000000       0.00000000       0.00000000       0.00000000       0.00000000   -1585.87695312
B        0.00000000       0.00000000       0.23878788       0.00000000       0.00000000    1585.87695312
2
Properties=species:S:1:pos:R:3:forces:R:3 energy=135.917434894674 pbc="F F F"
B        0.00000000       0.00000000       0.00000000       0.00000000       0.00000000    -863.77416992
B        0.00000000       0.00000000       0.29757576       0.00000000       0.00000000     863.77416992
2
Properties=species:S:1:pos:R:3:forces:R:3 energy=92.91471883655652 pbc="F F F"
B        0.00000000       0.00000000       0.00000000       0.00000000       0.00000000    -641.84820557
B        0.00000000       0.00000000       0.35636364       0.00000000       0.00000000     641.84820557
2
Properties=species:S:1:pos:R:3:forces:R:3 energy=62.03292869126281 pbc="F F F"
B        0.00000000       0.00000000       0.00000000       0.00000000       0.00000000    -407.41723633
B        0.00000000       0.00000000       0.41515152       0.00000000       0.00000000     407.41723633
2
Properties=species:S:1:pos:R:3:forces:R:3 energy=40.342960615394084 pbc="F F F"
B        0.00000000       0.00000000       0.00000000       0.00000000       0.00000000    -353.01113892
B        0.00000000       0.00000000       0.47393939       0.00000000       0.00000000     353.01113892
2
Properties=species:S:1:pos:R:3:forces:R:3 energy=22.064052901287713 pbc="F F F"
B        0.00000000       0.00000000       0.00000000       0.00000000       0.00000000    -236.71769714
B        0.00000000       0.00000000       0.53272727       0.00000000       0.00000000     236.71769714
2
Properties=species:S:1:pos:R:3:forces:R:3 energy=13.238353201196375 pbc="F F F"
B        0.00000000       0.00000000       0.00000000       0.00000000       0.00000000     -84.82016754
B        0.00000000       0.00000000       0.59151515       0.00000000       0.00000000      84.82016754
2
Properties=species:S:1:pos:R:3:forces:R:3 energy=9.130687359801593 pbc="F F F"
B        0.00000000       0.00000000       0.00000000       0.00000000       0.00000000     -72.29373169
B        0.00000000       0.00000000       0.65030303       0.00000000       0.00000000      72.29373169
2
Properties=species:S:1:pos:R:3:forces:R:3 energy=4.628908080711618 pbc="F F F"
B        0.00000000       0.00000000       0.00000000       0.00000000       0.00000000     -70.32880402
B        0.00000000       0.00000000       0.70909091       0.00000000       0.00000000      70.32880402
2
Properties=species:S:1:pos:R:3:forces:R:3 energy=1.6853929628626518 pbc="F F F"
B        0.00000000       0.00000000       0.00000000       0.00000000       0.00000000     -29.70180321
B        0.00000000       0.00000000       0.76787879       0.00000000       0.00000000      29.70180321
2
Properties=species:S:1:pos:R:3:forces:R:3 energy=0.73141057331034 pbc="F F F"
B        0.00000000       0.00000000       0.00000000       0.00000000       0.00000000      -7.27610254
B        0.00000000       0.00000000       0.82666667       0.00000000       0.00000000       7.27610254
2
Properties=species:S:1:pos:R:3:forces:R:3 energy=0.4789124791315105 pbc="F F F"
B        0.00000000       0.00000000       0.00000000       0.00000000       0.00000000      -2.56957221
B        0.00000000       0.00000000       0.88545455       0.00000000       0.00000000       2.56957221
2
Properties=species:S:1:pos:R:3:forces:R:3 energy=0.3235596383334114 pbc="F F F"
B        0.00000000       0.00000000       0.00000000       0.00000000       0.00000000      -3.56116581
B        0.00000000       0.00000000       0.94424242       0.00000000       0.00000000       3.56116581
2
Properties=species:S:1:pos:R:3:forces:R:3 energy=-0.00841274177220016 pbc="F F F"
B        0.00000000       0.00000000       0.00000000       0.00000000       0.00000000      -7.99313402
B        0.00000000       0.00000000       1.00303030       0.00000000       0.00000000       7.99313402
2
Properties=species:S:1:pos:R:3:forces:R:3 energy=-0.6167209546627217 pbc="F F F"
B        0.00000000       0.00000000       0.00000000       0.00000000       0.00000000     -12.50479603
B        0.00000000       0.00000000       1.06181818       0.00000000       0.00000000      12.50479603
2
Properties=species:S:1:pos:R:3:forces:R:3 energy=-1.4388923307756647 pbc="F F F"
B        0.00000000       0.00000000       0.00000000       0.00000000       0.00000000     -15.03042221
B        0.00000000       0.00000000       1.12060606       0.00000000       0.00000000      15.03042221
2
Properties=species:S:1:pos:R:3:forces:R:3 energy=-2.3307959215695018 pbc="F F F"
B        0.00000000       0.00000000       0.00000000       0.00000000       0.00000000     -14.89672279
B        0.00000000       0.00000000       1.17939394       0.00000000       0.00000000      14.89672279
2
Properties=species:S:1:pos:R:3:forces:R:3 energy=-3.152132323291957 pbc="F F F"
B        0.00000000       0.00000000       0.00000000       0.00000000       0.00000000     -12.82397652
B        0.00000000       0.00000000       1.23818182       0.00000000       0.00000000      12.82397652
2
Properties=species:S:1:pos:R:3:forces:R:3 energy=-3.822743968870906 pbc="F F F"
B        0.00000000       0.00000000       0.00000000       0.00000000       0.00000000      -9.91540909
B        0.00000000       0.00000000       1.29696970       0.00000000       0.00000000       9.91540909
2
Properties=species:S:1:pos:R:3:forces:R:3 energy=-4.31155719302022 pbc="F F F"
B        0.00000000       0.00000000       0.00000000       0.00000000       0.00000000      -6.66899967
B        0.00000000       0.00000000       1.35575758       0.00000000       0.00000000       6.66899967
2
Properties=species:S:1:pos:R:3:forces:R:3 energy=-4.603628061753808 pbc="F F F"
B        0.00000000       0.00000000       0.00000000       0.00000000       0.00000000      -3.27445555
B        0.00000000       0.00000000       1.41454545       0.00000000       0.00000000       3.27445555
2
Properties=species:S:1:pos:R:3:forces:R:3 energy=-4.703730865024649 pbc="F F F"
B        0.00000000       0.00000000       0.00000000       0.00000000       0.00000000      -0.24786516
B        0.00000000       0.00000000       1.47333333       0.00000000       0.00000000       0.24786516
2
Properties=species:S:1:pos:R:3:forces:R:3 energy=-4.651058020879728 pbc="F F F"
B        0.00000000       0.00000000       0.00000000       0.00000000       0.00000000       1.86458421
B        0.00000000       0.00000000       1.53212121       0.00000000       0.00000000      -1.86458421
2
Properties=species:S:1:pos:R:3:forces:R:3 energy=-4.504082149450098 pbc="F F F"
B        0.00000000       0.00000000       0.00000000       0.00000000       0.00000000       2.99212074
B        0.00000000       0.00000000       1.59090909       0.00000000       0.00000000      -2.99212074
2
Properties=species:S:1:pos:R:3:forces:R:3 energy=-4.312199561848695 pbc="F F F"
B        0.00000000       0.00000000       0.00000000       0.00000000       0.00000000       3.45952988
B        0.00000000       0.00000000       1.64969697       0.00000000       0.00000000      -3.45952988
2
Properties=species:S:1:pos:R:3:forces:R:3 energy=-4.103008941630427 pbc="F F F"
B        0.00000000       0.00000000       0.00000000       0.00000000       0.00000000       3.63101220
B        0.00000000       0.00000000       1.70848485       0.00000000       0.00000000      -3.63101220
2
Properties=species:S:1:pos:R:3:forces:R:3 energy=-3.886891780281792 pbc="F F F"
B        0.00000000       0.00000000       0.00000000       0.00000000       0.00000000       3.71465492
B        0.00000000       0.00000000       1.76727273       0.00000000       0.00000000      -3.71465492
2
Properties=species:S:1:pos:R:3:forces:R:3 energy=-3.6668325041143945 pbc="F F F"
B        0.00000000       0.00000000       0.00000000       0.00000000       0.00000000       3.76724124
B        0.00000000       0.00000000       1.82606061       0.00000000       0.00000000      -3.76724124
2
Properties=species:S:1:pos:R:3:forces:R:3 energy=-3.444555839573586 pbc="F F F"
B        0.00000000       0.00000000       0.00000000       0.00000000       0.00000000       3.78936982
B        0.00000000       0.00000000       1.88484848       0.00000000       0.00000000      -3.78936982
2
Properties=species:S:1:pos:R:3:forces:R:3 energy=-3.2219129882114554 pbc="F F F"
B        0.00000000       0.00000000       0.00000000       0.00000000       0.00000000       3.78017187
B        0.00000000       0.00000000       1.94363636       0.00000000       0.00000000      -3.78017187
2
Properties=species:S:1:pos:R:3:forces:R:3 energy=-3.0006242373358467 pbc="F F F"
B        0.00000000       0.00000000       0.00000000       0.00000000       0.00000000       3.74431348
B        0.00000000       0.00000000       2.00242424       0.00000000       0.00000000      -3.74431348
2
Properties=species:S:1:pos:R:3:forces:R:3 energy=-2.7820607610906087 pbc="F F F"
B        0.00000000       0.00000000       0.00000000       0.00000000       0.00000000       3.68819094
B        0.00000000       0.00000000       2.06121212       0.00000000       0.00000000      -3.68819094
2
Properties=species:S:1:pos:R:3:forces:R:3 energy=-2.5675340039049988 pbc="F F F"
B        0.00000000       0.00000000       0.00000000       0.00000000       0.00000000       3.60278606
B        0.00000000       0.00000000       2.12000000       0.00000000       0.00000000      -3.60278606
2
Properties=species:S:1:pos:R:3:forces:R:3 energy=-2.3596735344610553 pbc="F F F"
B        0.00000000       0.00000000       0.00000000       0.00000000       0.00000000       3.45616341
B        0.00000000       0.00000000       2.17878788       0.00000000       0.00000000      -3.45616341
2
Properties=species:S:1:pos:R:3:forces:R:3 energy=-2.1627359614160064 pbc="F F F"
B        0.00000000       0.00000000       0.00000000       0.00000000       0.00000000       3.23073602
B        0.00000000       0.00000000       2.23757576       0.00000000       0.00000000      -3.23073602
2
Properties=species:S:1:pos:R:3:forces:R:3 energy=-1.981210017669524 pbc="F F F"
B        0.00000000       0.00000000       0.00000000       0.00000000       0.00000000       2.93481135
B        0.00000000       0.00000000       2.29636364       0.00000000       0.00000000      -2.93481135
2
Properties=species:S:1:pos:R:3:forces:R:3 energy=-1.8185670393297027 pbc="F F F"
B        0.00000000       0.00000000       0.00000000       0.00000000       0.00000000       2.59348559
B        0.00000000       0.00000000       2.35515152       0.00000000       0.00000000      -2.59348559
2
Properties=species:S:1:pos:R:3:forces:R:3 energy=-1.6765345453570415 pbc="F F F"
B        0.00000000       0.00000000       0.00000000       0.00000000       0.00000000       2.23904729
B        0.00000000       0.00000000       2.41393939       0.00000000       0.00000000      -2.23904729
2
Properties=species:S:1:pos:R:3:forces:R:3 energy=-1.5549796443580883 pbc="F F F"
B        0.00000000       0.00000000       0.00000000       0.00000000       0.00000000       1.90103054
B        0.00000000       0.00000000       2.47272727       0.00000000       0.00000000      -1.90103054
2
Properties=species:S:1:pos:R:3:forces:R:3 energy=-1.452308297522126 pbc="F F F"
B        0.00000000       0.00000000       0.00000000       0.00000000       0.00000000       1.59883940
B        0.00000000       0.00000000       2.53151515       0.00000000       0.00000000      -1.59883940
2
Properties=species:S:1:pos:R:3:forces:R:3 energy=-1.366135672887758 pbc="F F F"
B        0.00000000       0.00000000       0.00000000       0.00000000       0.00000000       1.34020782
B        0.00000000       0.00000000       2.59030303       0.00000000       0.00000000      -1.34020782
2
Properties=species:S:1:pos:R:3:forces:R:3 energy=-1.2938910666678505 pbc="F F F"
B        0.00000000       0.00000000       0.00000000       0.00000000       0.00000000       1.12439549
B        0.00000000       0.00000000       2.64909091       0.00000000       0.00000000      -1.12439549
2
Properties=species:S:1:pos:R:3:forces:R:3 energy=-1.233186052398302 pbc="F F F"
B        0.00000000       0.00000000       0.00000000       0.00000000       0.00000000       0.94670612
B        0.00000000       0.00000000       2.70787879       0.00000000       0.00000000      -0.94670612
2
Properties=species:S:1:pos:R:3:forces:R:3 energy=-1.1819407340872483 pbc="F F F"
B        0.00000000       0.00000000       0.00000000       0.00000000       0.00000000       0.80174291
B        0.00000000       0.00000000       2.76666667       0.00000000       0.00000000      -0.80174291
2
Properties=species:S:1:pos:R:3:forces:R:3 energy=-1.1383728303176444 pbc="F F F"
B        0.00000000       0.00000000       0.00000000       0.00000000       0.00000000       0.68478495
B        0.00000000       0.00000000       2.82545455       0.00000000       0.00000000      -0.68478495
2
Properties=species:S:1:pos:R:3:forces:R:3 energy=-1.1009544859744378 pbc="F F F"
B        0.00000000       0.00000000       0.00000000       0.00000000       0.00000000       0.59193438
B        0.00000000       0.00000000       2.88424242       0.00000000       0.00000000      -0.59193438
2
Properties=species:S:1:pos:R:3:forces:R:3 energy=-1.0683704859728178 pbc="F F F"
B        0.00000000       0.00000000       0.00000000       0.00000000       0.00000000       0.51976639
B        0.00000000       0.00000000       2.94303030       0.00000000       0.00000000      -0.51976639
2
Properties=species:S:1:pos:R:3:forces:R:3 energy=-1.0395011187988712 pbc="F F F"
B        0.00000000       0.00000000       0.00000000       0.00000000       0.00000000       0.46504146
B        0.00000000       0.00000000       3.00181818       0.00000000       0.00000000      -0.46504146
2
Properties=species:S:1:pos:R:3:forces:R:3 energy=-1.0134125438998351 pbc="F F F"
B        0.00000000       0.00000000       0.00000000       0.00000000       0.00000000       0.42461362
B        0.00000000       0.00000000       3.06060606       0.00000000       0.00000000      -0.42461362
2
Properties=species:S:1:pos:R:3:forces:R:3 energy=-0.9893549165976627 pbc="F F F"
B        0.00000000       0.00000000       0.00000000       0.00000000       0.00000000       0.39549428
B        0.00000000       0.00000000       3.11939394       0.00000000       0.00000000      -0.39549428
2
Properties=species:S:1:pos:R:3:forces:R:3 energy=-0.9667441559873413 pbc="F F F"
B        0.00000000       0.00000000       0.00000000       0.00000000       0.00000000       0.37496322
B        0.00000000       0.00000000       3.17818182       0.00000000       0.00000000      -0.37496322
2
Properties=species:S:1:pos:R:3:forces:R:3 energy=-0.9451467209938743 pbc="F F F"
B        0.00000000       0.00000000       0.00000000       0.00000000       0.00000000       0.36066517
B        0.00000000       0.00000000       3.23696970       0.00000000       0.00000000      -0.36066517
2
Properties=species:S:1:pos:R:3:forces:R:3 energy=-0.9242549308815216 pbc="F F F"
B        0.00000000       0.00000000       0.00000000       0.00000000       0.00000000       0.35065567
B        0.00000000       0.00000000       3.29575758       0.00000000       0.00000000      -0.35065567
2
Properties=species:S:1:pos:R:3:forces:R:3 energy=-0.9038641145000954 pbc="F F F"
B        0.00000000       0.00000000       0.00000000       0.00000000       0.00000000       0.34340495
B        0.00000000       0.00000000       3.35454545       0.00000000       0.00000000      -0.34340495
2
Properties=species:S:1:pos:R:3:forces:R:3 energy=-0.8838474438696009 pbc="F F F"
B        0.00000000       0.00000000       0.00000000       0.00000000       0.00000000       0.33777344
B        0.00000000       0.00000000       3.41333333       0.00000000       0.00000000      -0.33777344
2
Properties=species:S:1:pos:R:3:forces:R:3 energy=-0.864133984831783 pbc="F F F"
B        0.00000000       0.00000000       0.00000000       0.00000000       0.00000000       0.33296826
B        0.00000000       0.00000000       3.47212121       0.00000000       0.00000000      -0.33296826
2
Properties=species:S:1:pos:R:3:forces:R:3 energy=-0.8446926258027748 pbc="F F F"
B        0.00000000       0.00000000       0.00000000       0.00000000       0.00000000       0.32847825
B        0.00000000       0.00000000       3.53090909       0.00000000       0.00000000      -0.32847825
2
Properties=species:S:1:pos:R:3:forces:R:3 energy=-0.8255130363809501 pbc="F F F"
B        0.00000000       0.00000000       0.00000000       0.00000000       0.00000000       0.32399243
B        0.00000000       0.00000000       3.58969697       0.00000000       0.00000000      -0.32399243
2
Properties=species:S:1:pos:R:3:forces:R:3 energy=-0.8066020560541761 pbc="F F F"
B        0.00000000       0.00000000       0.00000000       0.00000000       0.00000000       0.31933120
B        0.00000000       0.00000000       3.64848485       0.00000000       0.00000000      -0.31933120
2
Properties=species:S:1:pos:R:3:forces:R:3 energy=-0.7879732954811585 pbc="F F F"
B        0.00000000       0.00000000       0.00000000       0.00000000       0.00000000       0.31438416
B        0.00000000       0.00000000       3.70727273       0.00000000       0.00000000      -0.31438416
2
Properties=species:S:1:pos:R:3:forces:R:3 energy=-0.769645073335547 pbc="F F F"
B        0.00000000       0.00000000       0.00000000       0.00000000       0.00000000       0.30907696
B        0.00000000       0.00000000       3.76606061       0.00000000       0.00000000      -0.30907696
2
Properties=species:S:1:pos:R:3:forces:R:3 energy=-0.7516412892007872 pbc="F F F"
B        0.00000000       0.00000000       0.00000000       0.00000000       0.00000000       0.30335370
B        0.00000000       0.00000000       3.82484848       0.00000000       0.00000000      -0.30335370
2
Properties=species:S:1:pos:R:3:forces:R:3 energy=-0.7339872342379236 pbc="F F F"
B        0.00000000       0.00000000       0.00000000       0.00000000       0.00000000       0.29715836
B        0.00000000       0.00000000       3.88363636       0.00000000       0.00000000      -0.29715836
2
Properties=species:S:1:pos:R:3:forces:R:3 energy=-0.7167134332253118 pbc="F F F"
B        0.00000000       0.00000000       0.00000000       0.00000000       0.00000000       0.29040995
B        0.00000000       0.00000000       3.94242424       0.00000000       0.00000000      -0.29040995
2
Properties=species:S:1:pos:R:3:forces:R:3 energy=-0.6998557194183992 pbc="F F F"
B        0.00000000       0.00000000       0.00000000       0.00000000       0.00000000       0.28297389
B        0.00000000       0.00000000       4.00121212       0.00000000       0.00000000      -0.28297389
2
Properties=species:S:1:pos:R:3:forces:R:3 energy=-0.6834604027307973 pbc="F F F"
B        0.00000000       0.00000000       0.00000000       0.00000000       0.00000000       0.27462780
B        0.00000000       0.00000000       4.06000000       0.00000000       0.00000000      -0.27462780
2
Properties=species:S:1:pos:R:3:forces:R:3 energy=-0.6675902947631178 pbc="F F F"
B        0.00000000       0.00000000       0.00000000       0.00000000       0.00000000       0.26505703
B        0.00000000       0.00000000       4.11878788       0.00000000       0.00000000      -0.26505703
2
Properties=species:S:1:pos:R:3:forces:R:3 energy=-0.6523274129787625 pbc="F F F"
B        0.00000000       0.00000000       0.00000000       0.00000000       0.00000000       0.25388515
B        0.00000000       0.00000000       4.17757576       0.00000000       0.00000000      -0.25388515
2
Properties=species:S:1:pos:R:3:forces:R:3 energy=-0.637777861157195 pbc="F F F"
B        0.00000000       0.00000000       0.00000000       0.00000000       0.00000000       0.24074228
B        0.00000000       0.00000000       4.23636364       0.00000000       0.00000000      -0.24074228
2
Properties=species:S:1:pos:R:3:forces:R:3 energy=-0.6240655095097044 pbc="F F F"
B        0.00000000       0.00000000       0.00000000       0.00000000       0.00000000       0.22537126
B        0.00000000       0.00000000       4.29515152       0.00000000       0.00000000      -0.22537126
2
Properties=species:S:1:pos:R:3:forces:R:3 energy=-0.6113244468562936 pbc="F F F"
B        0.00000000       0.00000000       0.00000000       0.00000000       0.00000000       0.20773615
B        0.00000000       0.00000000       4.35393939       0.00000000       0.00000000      -0.20773615
2
Properties=species:S:1:pos:R:3:forces:R:3 energy=-0.599680579421511 pbc="F F F"
B        0.00000000       0.00000000       0.00000000       0.00000000       0.00000000       0.18809761
B        0.00000000       0.00000000       4.41272727       0.00000000       0.00000000      -0.18809761
2
Properties=species:S:1:pos:R:3:forces:R:3 energy=-0.5892366649009184 pbc="F F F"
B        0.00000000       0.00000000       0.00000000       0.00000000       0.00000000       0.16703217
B        0.00000000       0.00000000       4.47151515       0.00000000       0.00000000      -0.16703217
2
Properties=species:S:1:pos:R:3:forces:R:3 energy=-0.58005355442101 pbc="F F F"
B        0.00000000       0.00000000       0.00000000       0.00000000       0.00000000       0.14535347
B        0.00000000       0.00000000       4.53030303       0.00000000       0.00000000      -0.14535347
2
Properties=species:S:1:pos:R:3:forces:R:3 energy=-0.5721408549928457 pbc="F F F"
B        0.00000000       0.00000000       0.00000000       0.00000000       0.00000000       0.12396936
B        0.00000000       0.00000000       4.58909091       0.00000000       0.00000000      -0.12396936
2
Properties=species:S:1:pos:R:3:forces:R:3 energy=-0.5654557395870439 pbc="F F F"
B        0.00000000       0.00000000       0.00000000       0.00000000       0.00000000       0.10371257
B        0.00000000       0.00000000       4.64787879       0.00000000       0.00000000      -0.10371257
2
Properties=species:S:1:pos:R:3:forces:R:3 energy=-0.5599123789228547 pbc="F F F"
B        0.00000000       0.00000000       0.00000000       0.00000000       0.00000000       0.08519750
B        0.00000000       0.00000000       4.70666667       0.00000000       0.00000000      -0.08519750
2
Properties=species:S:1:pos:R:3:forces:R:3 energy=-0.5553976255972903 pbc="F F F"
B        0.00000000       0.00000000       0.00000000       0.00000000       0.00000000       0.06876162
B        0.00000000       0.00000000       4.76545455       0.00000000       0.00000000      -0.06876162
2
Properties=species:S:1:pos:R:3:forces:R:3 energy=-0.551785173252091 pbc="F F F"
B        0.00000000       0.00000000       0.00000000       0.00000000       0.00000000       0.05448310
B        0.00000000       0.00000000       4.82424242       0.00000000       0.00000000      -0.05448310
2
Properties=species:S:1:pos:R:3:forces:R:3 energy=-0.5489511339768555 pbc="F F F"
B        0.00000000       0.00000000       0.00000000       0.00000000       0.00000000       0.04227600
B        0.00000000       0.00000000       4.88303030       0.00000000       0.00000000      -0.04227600
2
Properties=species:S:1:pos:R:3:forces:R:3 energy=-0.5467772108184588 pbc="F F F"
B        0.00000000       0.00000000       0.00000000       0.00000000       0.00000000       0.03198323
B        0.00000000       0.00000000       4.94181818       0.00000000       0.00000000      -0.03198323
2
Properties=species:S:1:pos:R:3:forces:R:3 energy=-0.5451556845643445 pbc="F F F"
B        0.00000000       0.00000000       0.00000000       0.00000000       0.00000000       0.02347090
B        0.00000000       0.00000000       5.00060606       0.00000000       0.00000000      -0.02347090
2
Properties=species:S:1:pos:R:3:forces:R:3 energy=-0.5439845352691426 pbc="F F F"
B        0.00000000       0.00000000       0.00000000       0.00000000       0.00000000       0.01664528
B        0.00000000       0.00000000       5.05939394       0.00000000       0.00000000      -0.01664528
2
Properties=species:S:1:pos:R:3:forces:R:3 energy=-0.5431667269989319 pbc="F F F"
B        0.00000000       0.00000000       0.00000000       0.00000000       0.00000000       0.01144225
B        0.00000000       0.00000000       5.11818182       0.00000000       0.00000000      -0.01144225
2
Properties=species:S:1:pos:R:3:forces:R:3 energy=-0.5426090939539442 pbc="F F F"
B        0.00000000       0.00000000       0.00000000       0.00000000       0.00000000       0.00777568
B        0.00000000       0.00000000       5.17696970       0.00000000       0.00000000      -0.00777568
2
Properties=species:S:1:pos:R:3:forces:R:3 energy=-0.5422252654519143 pbc="F F F"
B        0.00000000       0.00000000       0.00000000       0.00000000       0.00000000       0.00549637
B        0.00000000       0.00000000       5.23575758       0.00000000       0.00000000      -0.00549637
2
Properties=species:S:1:pos:R:3:forces:R:3 energy=-0.5419402523179048 pbc="F F F"
B        0.00000000       0.00000000       0.00000000       0.00000000       0.00000000       0.00436730
B        0.00000000       0.00000000       5.29454545       0.00000000       0.00000000      -0.00436730
2
Properties=species:S:1:pos:R:3:forces:R:3 energy=-0.5416953485223893 pbc="F F F"
B        0.00000000       0.00000000       0.00000000       0.00000000       0.00000000       0.00407599
B        0.00000000       0.00000000       5.35333333       0.00000000       0.00000000      -0.00407599
2
Properties=species:S:1:pos:R:3:forces:R:3 energy=-0.5414514577559928 pbc="F F F"
B        0.00000000       0.00000000       0.00000000       0.00000000       0.00000000       0.00427385
B        0.00000000       0.00000000       5.41212121       0.00000000       0.00000000      -0.00427385
2
Properties=species:S:1:pos:R:3:forces:R:3 energy=-0.5411897534363399 pbc="F F F"
B        0.00000000       0.00000000       0.00000000       0.00000000       0.00000000       0.00463248
B        0.00000000       0.00000000       5.47090909       0.00000000       0.00000000      -0.00463248
2
Properties=species:S:1:pos:R:3:forces:R:3 energy=-0.5409087566945385 pbc="F F F"
B        0.00000000       0.00000000       0.00000000       0.00000000       0.00000000       0.00489414
B        0.00000000       0.00000000       5.52969697       0.00000000       0.00000000      -0.00489414
2
Properties=species:S:1:pos:R:3:forces:R:3 energy=-0.5406192703763519 pbc="F F F"
B        0.00000000       0.00000000       0.00000000       0.00000000       0.00000000       0.00490594
B        0.00000000       0.00000000       5.58848485       0.00000000       0.00000000      -0.00490594
2
Properties=species:S:1:pos:R:3:forces:R:3 energy=-0.5403377561950067 pbc="F F F"
B        0.00000000       0.00000000       0.00000000       0.00000000       0.00000000       0.00462657
B        0.00000000       0.00000000       5.64727273       0.00000000       0.00000000      -0.00462657
2
Properties=species:S:1:pos:R:3:forces:R:3 energy=-0.5400800744615908 pbc="F F F"
B        0.00000000       0.00000000       0.00000000       0.00000000       0.00000000       0.00410786
B        0.00000000       0.00000000       5.70606061       0.00000000       0.00000000      -0.00410786
2
Properties=species:S:1:pos:R:3:forces:R:3 energy=-0.5398571937385637 pbc="F F F"
B        0.00000000       0.00000000       0.00000000       0.00000000       0.00000000       0.00345709
B        0.00000000       0.00000000       5.76484848       0.00000000       0.00000000      -0.00345709
2
Properties=species:S:1:pos:R:3:forces:R:3 energy=-0.5396736363672586 pbc="F F F"
B        0.00000000       0.00000000       0.00000000       0.00000000       0.00000000       0.00279793
B        0.00000000       0.00000000       5.82363636       0.00000000       0.00000000      -0.00279793
2
Properties=species:S:1:pos:R:3:forces:R:3 energy=-0.5395264570713771 pbc="F F F"
B        0.00000000       0.00000000       0.00000000       0.00000000       0.00000000       0.00223502
B        0.00000000       0.00000000       5.88242424       0.00000000       0.00000000      -0.00223502
2
Properties=species:S:1:pos:R:3:forces:R:3 energy=-0.5394076344683691 pbc="F F F"
B        0.00000000       0.00000000       0.00000000       0.00000000       0.00000000       0.00183599
B        0.00000000       0.00000000       5.94121212       0.00000000       0.00000000      -0.00183599
2
Properties=species:S:1:pos:R:3:forces:R:3 energy=-0.5393067998158257 pbc="F F F"
B        0.00000000       0.00000000       0.00000000       0.00000000       0.00000000       0.00162845
B        0.00000000       0.00000000       6.00000000       0.00000000       0.00000000      -0.00162845
