2
Properties=species:S:1:pos:R:3:forces:R:3 energy=18207.954679994942 pbc="F F F"
Bi       0.00000000       0.00000000       0.00000000       0.00000000       0.00000000 -323321.15625000
Bi       0.00000000       0.00000000       0.18000000       0.00000000       0.00000000  323321.15625000
2
Properties=species:S:1:pos:R:3:forces:R:3 energy=6972.839445619941 pbc="F F F"
Bi       0.00000000       0.00000000       0.00000000       0.00000000       0.00000000 -105430.11718750
Bi       0.00000000       0.00000000       0.23878788       0.00000000       0.00000000  105430.11718750
2
Properties=species:S:1:pos:R:3:forces:R:3 energy=3026.970793279359 pbc="F F F"
Bi       0.00000000       0.00000000       0.00000000       0.00000000       0.00000000  -40413.57812500
Bi       0.00000000       0.00000000       0.29757576       0.00000000       0.00000000   40413.57812500
2
Properties=species:S:1:pos:R:3:forces:R:3 energy=1442.8796067559217 pbc="F F F"
Bi       0.00000000       0.00000000       0.00000000       0.00000000       0.00000000  -17138.78710938
Bi       0.00000000       0.00000000       0.35636364       0.00000000       0.00000000   17138.78710938
2
Properties=species:S:1:pos:R:3:forces:R:3 energy=748.3679490474135 pbc="F F F"
Bi       0.00000000       0.00000000       0.00000000       0.00000000       0.00000000   -7821.79931641
Bi       0.00000000       0.00000000       0.41515152       0.00000000       0.00000000    7821.79931641
2
Properties=species:S:1:pos:R:3:forces:R:3 energy=422.82556013773353 pbc="F F F"
Bi       0.00000000       0.00000000       0.00000000       0.00000000       0.00000000   -3785.92016602
Bi       0.00000000       0.00000000       0.47393939       0.00000000       0.00000000    3785.92016602
2
Properties=species:S:1:pos:R:3:forces:R:3 energy=261.7892137211936 pbc="F F F"
Bi       0.00000000       0.00000000       0.00000000       0.00000000       0.00000000   -1920.46435547
Bi       0.00000000       0.00000000       0.53272727       0.00000000       0.00000000    1920.46435547
2
Properties=species:S:1:pos:R:3:forces:R:3 energy=178.784285157669 pbc="F F F"
Bi       0.00000000       0.00000000       0.00000000       0.00000000       0.00000000   -1007.20074463
Bi       0.00000000       0.00000000       0.59151515       0.00000000       0.00000000    1007.20074463
2
Properties=species:S:1:pos:R:3:forces:R:3 energy=134.78520072936226 pbc="F F F"
Bi       0.00000000       0.00000000       0.00000000       0.00000000       0.00000000    -540.48400879
Bi       0.00000000       0.00000000       0.65030303       0.00000000       0.00000000     540.48400879
2
Properties=species:S:1:pos:R:3:forces:R:3 energy=110.86008331588202 pbc="F F F"
Bi       0.00000000       0.00000000       0.00000000       0.00000000       0.00000000    -300.92422485
Bi       0.00000000       0.00000000       0.70909091       0.00000000       0.00000000     300.92422485
2
Properties=species:S:1:pos:R:3:forces:R:3 energy=96.89725383691206 pbc="F F F"
Bi       0.00000000       0.00000000       0.00000000       0.00000000       0.00000000    -190.39231873
Bi       0.00000000       0.00000000       0.76787879       0.00000000       0.00000000     190.39231873
2
Properties=species:S:1:pos:R:3:forces:R:3 energy=87.2231817360138 pbc="F F F"
Bi       0.00000000       0.00000000       0.00000000       0.00000000       0.00000000    -143.22499084
Bi       0.00000000       0.00000000       0.82666667       0.00000000       0.00000000     143.22499084
2
Properties=species:S:1:pos:R:3:forces:R:3 energy=80.49320150485046 pbc="F F F"
Bi       0.00000000       0.00000000       0.00000000       0.00000000       0.00000000     -64.37306213
Bi       0.00000000       0.00000000       0.88545455       0.00000000       0.00000000      64.37306213
2
Properties=species:S:1:pos:R:3:forces:R:3 energy=77.88911401104977 pbc="F F F"
Bi       0.00000000       0.00000000       0.00000000       0.00000000       0.00000000     -46.97316360
Bi       0.00000000       0.00000000       0.94424242       0.00000000       0.00000000      46.97316360
2
Properties=species:S:1:pos:R:3:forces:R:3 energy=74.1129685353254 pbc="F F F"
Bi       0.00000000       0.00000000       0.00000000       0.00000000       0.00000000     -82.40618896
Bi       0.00000000       0.00000000       1.00303030       0.00000000       0.00000000      82.40618896
2
Properties=species:S:1:pos:R:3:forces:R:3 energy=68.1633765658865 pbc="F F F"
Bi       0.00000000       0.00000000       0.00000000       0.00000000       0.00000000    -119.78241730
Bi       0.00000000       0.00000000       1.06181818       0.00000000       0.00000000     119.78241730
2
Properties=species:S:1:pos:R:3:forces:R:3 energy=60.174749002069085 pbc="F F F"
Bi       0.00000000       0.00000000       0.00000000       0.00000000       0.00000000    -149.65093994
Bi       0.00000000       0.00000000       1.12060606       0.00000000       0.00000000     149.65093994
2
Properties=species:S:1:pos:R:3:forces:R:3 energy=50.91827654103667 pbc="F F F"
Bi       0.00000000       0.00000000       0.00000000       0.00000000       0.00000000    -162.15576172
Bi       0.00000000       0.00000000       1.17939394       0.00000000       0.00000000     162.15576172
2
Properties=species:S:1:pos:R:3:forces:R:3 energy=41.44469471661069 pbc="F F F"
Bi       0.00000000       0.00000000       0.00000000       0.00000000       0.00000000    -157.47644043
Bi       0.00000000       0.00000000       1.23818182       0.00000000       0.00000000     157.47644043
2
Properties=species:S:1:pos:R:3:forces:R:3 energy=32.708318784030105 pbc="F F F"
Bi       0.00000000       0.00000000       0.00000000       0.00000000       0.00000000    -137.34252930
Bi       0.00000000       0.00000000       1.29696970       0.00000000       0.00000000     137.34252930
2
Properties=species:S:1:pos:R:3:forces:R:3 energy=25.48793835225761 pbc="F F F"
Bi       0.00000000       0.00000000       0.00000000       0.00000000       0.00000000    -107.81549072
Bi       0.00000000       0.00000000       1.35575758       0.00000000       0.00000000     107.81549072
2
Properties=species:S:1:pos:R:3:forces:R:3 energy=19.957936676612196 pbc="F F F"
Bi       0.00000000       0.00000000       0.00000000       0.00000000       0.00000000     -81.63362122
Bi       0.00000000       0.00000000       1.41454545       0.00000000       0.00000000      81.63362122
2
Properties=species:S:1:pos:R:3:forces:R:3 energy=15.73311338015064 pbc="F F F"
Bi       0.00000000       0.00000000       0.00000000       0.00000000       0.00000000     -63.25313950
Bi       0.00000000       0.00000000       1.47333333       0.00000000       0.00000000      63.25313950
2
Properties=species:S:1:pos:R:3:forces:R:3 energy=12.400711660221523 pbc="F F F"
Bi       0.00000000       0.00000000       0.00000000       0.00000000       0.00000000     -51.04563141
Bi       0.00000000       0.00000000       1.53212121       0.00000000       0.00000000      51.04563141
2
Properties=species:S:1:pos:R:3:forces:R:3 energy=9.643215357815125 pbc="F F F"
Bi       0.00000000       0.00000000       0.00000000       0.00000000       0.00000000     -43.27508926
Bi       0.00000000       0.00000000       1.59090909       0.00000000       0.00000000      43.27508926
2
Properties=species:S:1:pos:R:3:forces:R:3 energy=7.277519165740374 pbc="F F F"
Bi       0.00000000       0.00000000       0.00000000       0.00000000       0.00000000     -37.36824036
Bi       0.00000000       0.00000000       1.64969697       0.00000000       0.00000000      37.36824036
2
Properties=species:S:1:pos:R:3:forces:R:3 energy=5.236558988788279 pbc="F F F"
Bi       0.00000000       0.00000000       0.00000000       0.00000000       0.00000000     -32.15699005
Bi       0.00000000       0.00000000       1.70848485       0.00000000       0.00000000      32.15699005
2
Properties=species:S:1:pos:R:3:forces:R:3 energy=3.486323455808123 pbc="F F F"
Bi       0.00000000       0.00000000       0.00000000       0.00000000       0.00000000     -27.47370529
Bi       0.00000000       0.00000000       1.76727273       0.00000000       0.00000000      27.47370529
2
Properties=species:S:1:pos:R:3:forces:R:3 energy=1.996845973179292 pbc="F F F"
Bi       0.00000000       0.00000000       0.00000000       0.00000000       0.00000000     -23.27117538
Bi       0.00000000       0.00000000       1.82606061       0.00000000       0.00000000      23.27117538
2
Properties=species:S:1:pos:R:3:forces:R:3 energy=0.7420481281543143 pbc="F F F"
Bi       0.00000000       0.00000000       0.00000000       0.00000000       0.00000000     -19.49334717
Bi       0.00000000       0.00000000       1.88484848       0.00000000       0.00000000      19.49334717
2
Properties=species:S:1:pos:R:3:forces:R:3 energy=-0.30600432005925343 pbc="F F F"
Bi       0.00000000       0.00000000       0.00000000       0.00000000       0.00000000     -16.27405167
Bi       0.00000000       0.00000000       1.94363636       0.00000000       0.00000000      16.27405167
2
Properties=species:S:1:pos:R:3:forces:R:3 energy=-1.1860150606672957 pbc="F F F"
Bi       0.00000000       0.00000000       0.00000000       0.00000000       0.00000000     -13.79235077
Bi       0.00000000       0.00000000       2.00242424       0.00000000       0.00000000      13.79235077
2
Properties=species:S:1:pos:R:3:forces:R:3 energy=-1.9414934226158473 pbc="F F F"
Bi       0.00000000       0.00000000       0.00000000       0.00000000       0.00000000     -12.00960636
Bi       0.00000000       0.00000000       2.06121212       0.00000000       0.00000000      12.00960636
2
Properties=species:S:1:pos:R:3:forces:R:3 energy=-2.607017784785979 pbc="F F F"
Bi       0.00000000       0.00000000       0.00000000       0.00000000       0.00000000     -10.68359184
Bi       0.00000000       0.00000000       2.12000000       0.00000000       0.00000000      10.68359184
2
Properties=species:S:1:pos:R:3:forces:R:3 energy=-3.201060591435203 pbc="F F F"
Bi       0.00000000       0.00000000       0.00000000       0.00000000       0.00000000      -9.53643417
Bi       0.00000000       0.00000000       2.17878788       0.00000000       0.00000000       9.53643417
2
Properties=species:S:1:pos:R:3:forces:R:3 energy=-3.728023587055397 pbc="F F F"
Bi       0.00000000       0.00000000       0.00000000       0.00000000       0.00000000      -8.38078690
Bi       0.00000000       0.00000000       2.23757576       0.00000000       0.00000000       8.38078690
2
Properties=species:S:1:pos:R:3:forces:R:3 energy=-4.184858261491162 pbc="F F F"
Bi       0.00000000       0.00000000       0.00000000       0.00000000       0.00000000      -7.14745569
Bi       0.00000000       0.00000000       2.29636364       0.00000000       0.00000000       7.14745569
2
Properties=species:S:1:pos:R:3:forces:R:3 energy=-4.567114136817717 pbc="F F F"
Bi       0.00000000       0.00000000       0.00000000       0.00000000       0.00000000      -5.85011768
Bi       0.00000000       0.00000000       2.35515152       0.00000000       0.00000000       5.85011768
2
Properties=species:S:1:pos:R:3:forces:R:3 energy=-4.87241257038792 pbc="F F F"
Bi       0.00000000       0.00000000       0.00000000       0.00000000       0.00000000      -4.53848982
Bi       0.00000000       0.00000000       2.41393939       0.00000000       0.00000000       4.53848982
2
Properties=species:S:1:pos:R:3:forces:R:3 energy=-5.101509590011853 pbc="F F F"
Bi       0.00000000       0.00000000       0.00000000       0.00000000       0.00000000      -3.26614618
Bi       0.00000000       0.00000000       2.47272727       0.00000000       0.00000000       3.26614618
2
Properties=species:S:1:pos:R:3:forces:R:3 energy=-5.258050771147116 pbc="F F F"
Bi       0.00000000       0.00000000       0.00000000       0.00000000       0.00000000      -2.07607603
Bi       0.00000000       0.00000000       2.53151515       0.00000000       0.00000000       2.07607603
2
Properties=species:S:1:pos:R:3:forces:R:3 energy=-5.3478245827689825 pbc="F F F"
Bi       0.00000000       0.00000000       0.00000000       0.00000000       0.00000000      -0.99888766
Bi       0.00000000       0.00000000       2.59030303       0.00000000       0.00000000       0.99888766
2
Properties=species:S:1:pos:R:3:forces:R:3 energy=-5.378122424386763 pbc="F F F"
Bi       0.00000000       0.00000000       0.00000000       0.00000000       0.00000000      -0.05553607
Bi       0.00000000       0.00000000       2.64909091       0.00000000       0.00000000       0.05553607
2
Properties=species:S:1:pos:R:3:forces:R:3 energy=-5.357247543959474 pbc="F F F"
Bi       0.00000000       0.00000000       0.00000000       0.00000000       0.00000000       0.74035168
Bi       0.00000000       0.00000000       2.70787879       0.00000000       0.00000000      -0.74035168
2
Properties=species:S:1:pos:R:3:forces:R:3 energy=-5.294106808267618 pbc="F F F"
Bi       0.00000000       0.00000000       0.00000000       0.00000000       0.00000000       1.38177752
Bi       0.00000000       0.00000000       2.76666667       0.00000000       0.00000000      -1.38177752
2
Properties=species:S:1:pos:R:3:forces:R:3 energy=-5.197808290365528 pbc="F F F"
Bi       0.00000000       0.00000000       0.00000000       0.00000000       0.00000000       1.86915791
Bi       0.00000000       0.00000000       2.82545455       0.00000000       0.00000000      -1.86915791
2
Properties=species:S:1:pos:R:3:forces:R:3 energy=-5.077173976851724 pbc="F F F"
Bi       0.00000000       0.00000000       0.00000000       0.00000000       0.00000000       2.21215987
Bi       0.00000000       0.00000000       2.88424242       0.00000000       0.00000000      -2.21215987
2
Properties=species:S:1:pos:R:3:forces:R:3 energy=-4.940170894803536 pbc="F F F"
Bi       0.00000000       0.00000000       0.00000000       0.00000000       0.00000000       2.42989802
Bi       0.00000000       0.00000000       2.94303030       0.00000000       0.00000000      -2.42989802
2
Properties=species:S:1:pos:R:3:forces:R:3 energy=-4.7934452482091805 pbc="F F F"
Bi       0.00000000       0.00000000       0.00000000       0.00000000       0.00000000       2.54717779
Bi       0.00000000       0.00000000       3.00181818       0.00000000       0.00000000      -2.54717779
2
Properties=species:S:1:pos:R:3:forces:R:3 energy=-4.642178435320742 pbc="F F F"
Bi       0.00000000       0.00000000       0.00000000       0.00000000       0.00000000       2.58805227
Bi       0.00000000       0.00000000       3.06060606       0.00000000       0.00000000      -2.58805227
2
Properties=species:S:1:pos:R:3:forces:R:3 energy=-4.490286063979356 pbc="F F F"
Bi       0.00000000       0.00000000       0.00000000       0.00000000       0.00000000       2.57095718
Bi       0.00000000       0.00000000       3.11939394       0.00000000       0.00000000      -2.57095718
2
Properties=species:S:1:pos:R:3:forces:R:3 energy=-4.34079139113782 pbc="F F F"
Bi       0.00000000       0.00000000       0.00000000       0.00000000       0.00000000       2.50801015
Bi       0.00000000       0.00000000       3.17818182       0.00000000       0.00000000      -2.50801015
2
Properties=species:S:1:pos:R:3:forces:R:3 energy=-4.196142497102515 pbc="F F F"
Bi       0.00000000       0.00000000       0.00000000       0.00000000       0.00000000       2.40739298
Bi       0.00000000       0.00000000       3.23696970       0.00000000       0.00000000      -2.40739298
2
Properties=species:S:1:pos:R:3:forces:R:3 energy=-4.058341283328049 pbc="F F F"
Bi       0.00000000       0.00000000       0.00000000       0.00000000       0.00000000       2.27616119
Bi       0.00000000       0.00000000       3.29575758       0.00000000       0.00000000      -2.27616119
2
Properties=species:S:1:pos:R:3:forces:R:3 energy=-3.9289744381623026 pbc="F F F"
Bi       0.00000000       0.00000000       0.00000000       0.00000000       0.00000000       2.12179232
Bi       0.00000000       0.00000000       3.35454545       0.00000000       0.00000000      -2.12179232
2
Properties=species:S:1:pos:R:3:forces:R:3 energy=-3.8091666021069353 pbc="F F F"
Bi       0.00000000       0.00000000       0.00000000       0.00000000       0.00000000       1.95228112
Bi       0.00000000       0.00000000       3.41333333       0.00000000       0.00000000      -1.95228112
2
Properties=species:S:1:pos:R:3:forces:R:3 energy=-3.6995736424037875 pbc="F F F"
Bi       0.00000000       0.00000000       0.00000000       0.00000000       0.00000000       1.77556479
Bi       0.00000000       0.00000000       3.47212121       0.00000000       0.00000000      -1.77556479
2
Properties=species:S:1:pos:R:3:forces:R:3 energy=-3.6004020926117737 pbc="F F F"
Bi       0.00000000       0.00000000       0.00000000       0.00000000       0.00000000       1.59890723
Bi       0.00000000       0.00000000       3.53090909       0.00000000       0.00000000      -1.59890723
2
Properties=species:S:1:pos:R:3:forces:R:3 energy=-3.5114575271622908 pbc="F F F"
Bi       0.00000000       0.00000000       0.00000000       0.00000000       0.00000000       1.42851019
Bi       0.00000000       0.00000000       3.58969697       0.00000000       0.00000000      -1.42851019
2
Properties=species:S:1:pos:R:3:forces:R:3 energy=-3.4322241466064085 pbc="F F F"
Bi       0.00000000       0.00000000       0.00000000       0.00000000       0.00000000       1.26922822
Bi       0.00000000       0.00000000       3.64848485       0.00000000       0.00000000      -1.26922822
2
Properties=species:S:1:pos:R:3:forces:R:3 energy=-3.3619439521676164 pbc="F F F"
Bi       0.00000000       0.00000000       0.00000000       0.00000000       0.00000000       1.12435222
Bi       0.00000000       0.00000000       3.70727273       0.00000000       0.00000000      -1.12435222
2
Properties=species:S:1:pos:R:3:forces:R:3 energy=-3.299707354948244 pbc="F F F"
Bi       0.00000000       0.00000000       0.00000000       0.00000000       0.00000000       0.99577266
Bi       0.00000000       0.00000000       3.76606061       0.00000000       0.00000000      -0.99577266
2
Properties=species:S:1:pos:R:3:forces:R:3 energy=-3.2445283612023563 pbc="F F F"
Bi       0.00000000       0.00000000       0.00000000       0.00000000       0.00000000       0.88437957
Bi       0.00000000       0.00000000       3.82484848       0.00000000       0.00000000      -0.88437957
2
Properties=species:S:1:pos:R:3:forces:R:3 energy=-3.195387335911564 pbc="F F F"
Bi       0.00000000       0.00000000       0.00000000       0.00000000       0.00000000       0.79022753
Bi       0.00000000       0.00000000       3.88363636       0.00000000       0.00000000      -0.79022753
2
Properties=species:S:1:pos:R:3:forces:R:3 energy=-3.1512926065799323 pbc="F F F"
Bi       0.00000000       0.00000000       0.00000000       0.00000000       0.00000000       0.71254456
Bi       0.00000000       0.00000000       3.94242424       0.00000000       0.00000000      -0.71254456
2
Properties=species:S:1:pos:R:3:forces:R:3 energy=-3.1113185404818835 pbc="F F F"
Bi       0.00000000       0.00000000       0.00000000       0.00000000       0.00000000       0.64972264
Bi       0.00000000       0.00000000       4.00121212       0.00000000       0.00000000      -0.64972264
2
Properties=species:S:1:pos:R:3:forces:R:3 energy=-3.0746548214401903 pbc="F F F"
Bi       0.00000000       0.00000000       0.00000000       0.00000000       0.00000000       0.59946984
Bi       0.00000000       0.00000000       4.06000000       0.00000000       0.00000000      -0.59946984
2
Properties=species:S:1:pos:R:3:forces:R:3 energy=-3.0406421000752277 pbc="F F F"
Bi       0.00000000       0.00000000       0.00000000       0.00000000       0.00000000       0.55908442
Bi       0.00000000       0.00000000       4.11878788       0.00000000       0.00000000      -0.55908442
2
Properties=species:S:1:pos:R:3:forces:R:3 energy=-3.0087817664709635 pbc="F F F"
Bi       0.00000000       0.00000000       0.00000000       0.00000000       0.00000000       0.52575845
Bi       0.00000000       0.00000000       4.17757576       0.00000000       0.00000000      -0.52575845
2
Properties=species:S:1:pos:R:3:forces:R:3 energy=-2.9787381798095307 pbc="F F F"
Bi       0.00000000       0.00000000       0.00000000       0.00000000       0.00000000       0.49687409
Bi       0.00000000       0.00000000       4.23636364       0.00000000       0.00000000      -0.49687409
2
Properties=species:S:1:pos:R:3:forces:R:3 energy=-2.950317813417237 pbc="F F F"
Bi       0.00000000       0.00000000       0.00000000       0.00000000       0.00000000       0.47020549
Bi       0.00000000       0.00000000       4.29515152       0.00000000       0.00000000      -0.47020549
2
Properties=species:S:1:pos:R:3:forces:R:3 energy=-2.9234444710717074 pbc="F F F"
Bi       0.00000000       0.00000000       0.00000000       0.00000000       0.00000000       0.44403094
Bi       0.00000000       0.00000000       4.35393939       0.00000000       0.00000000      -0.44403094
2
Properties=species:S:1:pos:R:3:forces:R:3 energy=-2.898125507591382 pbc="F F F"
Bi       0.00000000       0.00000000       0.00000000       0.00000000       0.00000000       0.41714570
Bi       0.00000000       0.00000000       4.41272727       0.00000000       0.00000000      -0.41714570
2
Properties=species:S:1:pos:R:3:forces:R:3 energy=-2.8744264954455954 pbc="F F F"
Bi       0.00000000       0.00000000       0.00000000       0.00000000       0.00000000       0.38882920
Bi       0.00000000       0.00000000       4.47151515       0.00000000       0.00000000      -0.38882920
2
Properties=species:S:1:pos:R:3:forces:R:3 energy=-2.852442039485436 pbc="F F F"
Bi       0.00000000       0.00000000       0.00000000       0.00000000       0.00000000       0.35879779
Bi       0.00000000       0.00000000       4.53030303       0.00000000       0.00000000      -0.35879779
2
Properties=species:S:1:pos:R:3:forces:R:3 energy=-2.83227223369304 pbc="F F F"
Bi       0.00000000       0.00000000       0.00000000       0.00000000       0.00000000       0.32716268
Bi       0.00000000       0.00000000       4.58909091       0.00000000       0.00000000      -0.32716268
2
Properties=species:S:1:pos:R:3:forces:R:3 energy=-2.813998326647409 pbc="F F F"
Bi       0.00000000       0.00000000       0.00000000       0.00000000       0.00000000       0.29440835
Bi       0.00000000       0.00000000       4.64787879       0.00000000       0.00000000      -0.29440835
2
Properties=species:S:1:pos:R:3:forces:R:3 energy=-2.7976625898256358 pbc="F F F"
Bi       0.00000000       0.00000000       0.00000000       0.00000000       0.00000000       0.26136059
Bi       0.00000000       0.00000000       4.70666667       0.00000000       0.00000000      -0.26136059
2
Properties=species:S:1:pos:R:3:forces:R:3 energy=-2.7832528013883295 pbc="F F F"
Bi       0.00000000       0.00000000       0.00000000       0.00000000       0.00000000       0.22912809
Bi       0.00000000       0.00000000       4.76545455       0.00000000       0.00000000      -0.22912809
2
Properties=species:S:1:pos:R:3:forces:R:3 energy=-2.770681440406792 pbc="F F F"
Bi       0.00000000       0.00000000       0.00000000       0.00000000       0.00000000       0.19898301
Bi       0.00000000       0.00000000       4.82424242       0.00000000       0.00000000      -0.19898301
2
Properties=species:S:1:pos:R:3:forces:R:3 energy=-2.759791135644292 pbc="F F F"
Bi       0.00000000       0.00000000       0.00000000       0.00000000       0.00000000       0.17220879
Bi       0.00000000       0.00000000       4.88303030       0.00000000       0.00000000      -0.17220879
2
Properties=species:S:1:pos:R:3:forces:R:3 energy=-2.750347125692473 pbc="F F F"
Bi       0.00000000       0.00000000       0.00000000       0.00000000       0.00000000       0.14987415
Bi       0.00000000       0.00000000       4.94181818       0.00000000       0.00000000      -0.14987415
2
Properties=species:S:1:pos:R:3:forces:R:3 energy=-2.7420682502188134 pbc="F F F"
Bi       0.00000000       0.00000000       0.00000000       0.00000000       0.00000000       0.13267006
Bi       0.00000000       0.00000000       5.00060606       0.00000000       0.00000000      -0.13267006
2
Properties=species:S:1:pos:R:3:forces:R:3 energy=-2.7346443402677028 pbc="F F F"
Bi       0.00000000       0.00000000       0.00000000       0.00000000       0.00000000       0.12073841
Bi       0.00000000       0.00000000       5.05939394       0.00000000       0.00000000      -0.12073841
2
Properties=species:S:1:pos:R:3:forces:R:3 energy=-2.727777571628584 pbc="F F F"
Bi       0.00000000       0.00000000       0.00000000       0.00000000       0.00000000       0.11362042
Bi       0.00000000       0.00000000       5.11818182       0.00000000       0.00000000      -0.11362042
2
Properties=species:S:1:pos:R:3:forces:R:3 energy=-2.721211305564473 pbc="F F F"
Bi       0.00000000       0.00000000       0.00000000       0.00000000       0.00000000       0.11028974
Bi       0.00000000       0.00000000       5.17696970       0.00000000       0.00000000      -0.11028974
2
Properties=species:S:1:pos:R:3:forces:R:3 energy=-2.7147641842526764 pbc="F F F"
Bi       0.00000000       0.00000000       0.00000000       0.00000000       0.00000000       0.10931017
Bi       0.00000000       0.00000000       5.23575758       0.00000000       0.00000000      -0.10931017
2
Properties=species:S:1:pos:R:3:forces:R:3 energy=-2.7083450830471025 pbc="F F F"
Bi       0.00000000       0.00000000       0.00000000       0.00000000       0.00000000       0.10905550
Bi       0.00000000       0.00000000       5.29454545       0.00000000       0.00000000      -0.10905550
2
Properties=species:S:1:pos:R:3:forces:R:3 energy=-2.701957896272865 pbc="F F F"
Bi       0.00000000       0.00000000       0.00000000       0.00000000       0.00000000       0.10797885
Bi       0.00000000       0.00000000       5.35333333       0.00000000       0.00000000      -0.10797885
2
Properties=species:S:1:pos:R:3:forces:R:3 energy=-2.6956898721389257 pbc="F F F"
Bi       0.00000000       0.00000000       0.00000000       0.00000000       0.00000000       0.10486145
Bi       0.00000000       0.00000000       5.41212121       0.00000000       0.00000000      -0.10486145
2
Properties=species:S:1:pos:R:3:forces:R:3 energy=-2.689683183906386 pbc="F F F"
Bi       0.00000000       0.00000000       0.00000000       0.00000000       0.00000000       0.09899043
Bi       0.00000000       0.00000000       5.47090909       0.00000000       0.00000000      -0.09899043
2
Properties=species:S:1:pos:R:3:forces:R:3 energy=-2.6841073287701978 pbc="F F F"
Bi       0.00000000       0.00000000       0.00000000       0.00000000       0.00000000       0.09022292
Bi       0.00000000       0.00000000       5.52969697       0.00000000       0.00000000      -0.09022292
2
Properties=species:S:1:pos:R:3:forces:R:3 energy=-2.6791245920112368 pbc="F F F"
Bi       0.00000000       0.00000000       0.00000000       0.00000000       0.00000000       0.07894382
Bi       0.00000000       0.00000000       5.58848485       0.00000000       0.00000000      -0.07894382
2
Properties=species:S:1:pos:R:3:forces:R:3 energy=-2.6748609425066303 pbc="F F F"
Bi       0.00000000       0.00000000       0.00000000       0.00000000       0.00000000       0.06597682
Bi       0.00000000       0.00000000       5.64727273       0.00000000       0.00000000      -0.06597682
2
Properties=species:S:1:pos:R:3:forces:R:3 energy=-2.671380795206417 pbc="F F F"
Bi       0.00000000       0.00000000       0.00000000       0.00000000       0.00000000       0.05237497
Bi       0.00000000       0.00000000       5.70606061       0.00000000       0.00000000      -0.05237497
2
Properties=species:S:1:pos:R:3:forces:R:3 energy=-2.6686882523276845 pbc="F F F"
Bi       0.00000000       0.00000000       0.00000000       0.00000000       0.00000000       0.03927118
Bi       0.00000000       0.00000000       5.76484848       0.00000000       0.00000000      -0.03927118
2
Properties=species:S:1:pos:R:3:forces:R:3 energy=-2.666729735462407 pbc="F F F"
Bi       0.00000000       0.00000000       0.00000000       0.00000000       0.00000000       0.02772172
Bi       0.00000000       0.00000000       5.82363636       0.00000000       0.00000000      -0.02772172
2
Properties=species:S:1:pos:R:3:forces:R:3 energy=-2.6653839886281894 pbc="F F F"
Bi       0.00000000       0.00000000       0.00000000       0.00000000       0.00000000       0.01861789
Bi       0.00000000       0.00000000       5.88242424       0.00000000       0.00000000      -0.01861789
2
Properties=species:S:1:pos:R:3:forces:R:3 energy=-2.6644809743165916 pbc="F F F"
Bi       0.00000000       0.00000000       0.00000000       0.00000000       0.00000000       0.01261565
Bi       0.00000000       0.00000000       5.94121212       0.00000000       0.00000000      -0.01261565
2
Properties=species:S:1:pos:R:3:forces:R:3 energy=-2.6638295229207043 pbc="F F F"
Bi       0.00000000       0.00000000       0.00000000       0.00000000       0.00000000       0.01019728
Bi       0.00000000       0.00000000       6.00000000       0.00000000       0.00000000      -0.01019728
