2
Properties=species:S:1:pos:R:3:forces:R:3 energy=5500.282821523365 pbc="F F F"
Br       0.00000000       0.00000000       0.00000000       0.00000000       0.00000000  -88059.39843750
Br       0.00000000       0.00000000       0.18000000       0.00000000       0.00000000   88059.39843750
2
Properties=species:S:1:pos:R:3:forces:R:3 energy=2328.514266835865 pbc="F F F"
Br       0.00000000       0.00000000       0.00000000       0.00000000       0.00000000  -31310.44531250
Br       0.00000000       0.00000000       0.23878788       0.00000000       0.00000000   31310.44531250
2
Properties=species:S:1:pos:R:3:forces:R:3 energy=1112.2232512108649 pbc="F F F"
Br       0.00000000       0.00000000       0.00000000       0.00000000       0.00000000  -13111.84375000
Br       0.00000000       0.00000000       0.29757576       0.00000000       0.00000000   13111.84375000
2
Properties=species:S:1:pos:R:3:forces:R:3 energy=577.895248287513 pbc="F F F"
Br       0.00000000       0.00000000       0.00000000       0.00000000       0.00000000   -6079.99560547
Br       0.00000000       0.00000000       0.35636364       0.00000000       0.00000000    6079.99560547
2
Properties=species:S:1:pos:R:3:forces:R:3 energy=322.30409229432496 pbc="F F F"
Br       0.00000000       0.00000000       0.00000000       0.00000000       0.00000000   -3009.60473633
Br       0.00000000       0.00000000       0.41515152       0.00000000       0.00000000    3009.60473633
2
Properties=species:S:1:pos:R:3:forces:R:3 energy=193.29779043661694 pbc="F F F"
Br       0.00000000       0.00000000       0.00000000       0.00000000       0.00000000   -1549.51782227
Br       0.00000000       0.00000000       0.47393939       0.00000000       0.00000000    1549.51782227
2
Properties=species:S:1:pos:R:3:forces:R:3 energy=126.35792536866174 pbc="F F F"
Br       0.00000000       0.00000000       0.00000000       0.00000000       0.00000000    -806.97271729
Br       0.00000000       0.00000000       0.53272727       0.00000000       0.00000000     806.97271729
2
Properties=species:S:1:pos:R:3:forces:R:3 energy=91.81168368760339 pbc="F F F"
Br       0.00000000       0.00000000       0.00000000       0.00000000       0.00000000    -407.96289062
Br       0.00000000       0.00000000       0.59151515       0.00000000       0.00000000     407.96289062
2
Properties=species:S:1:pos:R:3:forces:R:3 energy=74.8923265145116 pbc="F F F"
Br       0.00000000       0.00000000       0.00000000       0.00000000       0.00000000    -190.48532104
Br       0.00000000       0.00000000       0.65030303       0.00000000       0.00000000     190.48532104
2
Properties=species:S:1:pos:R:3:forces:R:3 energy=67.23721349703736 pbc="F F F"
Br       0.00000000       0.00000000       0.00000000       0.00000000       0.00000000     -84.81549835
Br       0.00000000       0.00000000       0.70909091       0.00000000       0.00000000      84.81549835
2
Properties=species:S:1:pos:R:3:forces:R:3 energy=63.542133997681496 pbc="F F F"
Br       0.00000000       0.00000000       0.00000000       0.00000000       0.00000000     -49.81882477
Br       0.00000000       0.00000000       0.76787879       0.00000000       0.00000000      49.81882477
2
Properties=species:S:1:pos:R:3:forces:R:3 energy=60.61289327342796 pbc="F F F"
Br       0.00000000       0.00000000       0.00000000       0.00000000       0.00000000     -54.14058304
Br       0.00000000       0.00000000       0.82666667       0.00000000       0.00000000      54.14058304
2
Properties=species:S:1:pos:R:3:forces:R:3 energy=56.88291345724932 pbc="F F F"
Br       0.00000000       0.00000000       0.00000000       0.00000000       0.00000000     -73.81761169
Br       0.00000000       0.00000000       0.88545455       0.00000000       0.00000000      73.81761169
2
Properties=species:S:1:pos:R:3:forces:R:3 energy=51.922560518263744 pbc="F F F"
Br       0.00000000       0.00000000       0.00000000       0.00000000       0.00000000     -94.23699951
Br       0.00000000       0.00000000       0.94424242       0.00000000       0.00000000      94.23699951
2
Properties=species:S:1:pos:R:3:forces:R:3 energy=45.9586602497781 pbc="F F F"
Br       0.00000000       0.00000000       0.00000000       0.00000000       0.00000000    -106.87680817
Br       0.00000000       0.00000000       1.00303030       0.00000000       0.00000000     106.87680817
2
Properties=species:S:1:pos:R:3:forces:R:3 energy=39.574998763904894 pbc="F F F"
Br       0.00000000       0.00000000       0.00000000       0.00000000       0.00000000    -108.62804413
Br       0.00000000       0.00000000       1.06181818       0.00000000       0.00000000     108.62804413
2
Properties=species:S:1:pos:R:3:forces:R:3 energy=33.33204294104314 pbc="F F F"
Br       0.00000000       0.00000000       0.00000000       0.00000000       0.00000000    -103.00997925
Br       0.00000000       0.00000000       1.12060606       0.00000000       0.00000000     103.00997925
2
Properties=species:S:1:pos:R:3:forces:R:3 energy=27.498631803023304 pbc="F F F"
Br       0.00000000       0.00000000       0.00000000       0.00000000       0.00000000     -95.46829224
Br       0.00000000       0.00000000       1.17939394       0.00000000       0.00000000      95.46829224
2
Properties=species:S:1:pos:R:3:forces:R:3 energy=22.131085708169646 pbc="F F F"
Br       0.00000000       0.00000000       0.00000000       0.00000000       0.00000000     -86.29968262
Br       0.00000000       0.00000000       1.23818182       0.00000000       0.00000000      86.29968262
2
Properties=species:S:1:pos:R:3:forces:R:3 energy=17.495373172473226 pbc="F F F"
Br       0.00000000       0.00000000       0.00000000       0.00000000       0.00000000     -70.48364258
Br       0.00000000       0.00000000       1.29696970       0.00000000       0.00000000      70.48364258
2
Properties=species:S:1:pos:R:3:forces:R:3 energy=13.851820812683105 pbc="F F F"
Br       0.00000000       0.00000000       0.00000000       0.00000000       0.00000000     -54.15034103
Br       0.00000000       0.00000000       1.35575758       0.00000000       0.00000000      54.15034103
2
Properties=species:S:1:pos:R:3:forces:R:3 energy=11.013705182622077 pbc="F F F"
Br       0.00000000       0.00000000       0.00000000       0.00000000       0.00000000     -43.41484451
Br       0.00000000       0.00000000       1.41454545       0.00000000       0.00000000      43.41484451
2
Properties=species:S:1:pos:R:3:forces:R:3 energy=8.650264676916205 pbc="F F F"
Br       0.00000000       0.00000000       0.00000000       0.00000000       0.00000000     -37.58153534
Br       0.00000000       0.00000000       1.47333333       0.00000000       0.00000000      37.58153534
2
Properties=species:S:1:pos:R:3:forces:R:3 energy=6.552740828840866 pbc="F F F"
Br       0.00000000       0.00000000       0.00000000       0.00000000       0.00000000     -33.93558884
Br       0.00000000       0.00000000       1.53212121       0.00000000       0.00000000      33.93558884
2
Properties=species:S:1:pos:R:3:forces:R:3 energy=4.65839560629126 pbc="F F F"
Br       0.00000000       0.00000000       0.00000000       0.00000000       0.00000000     -30.43109512
Br       0.00000000       0.00000000       1.59090909       0.00000000       0.00000000      30.43109512
2
Properties=species:S:1:pos:R:3:forces:R:3 energy=2.987656943543908 pbc="F F F"
Br       0.00000000       0.00000000       0.00000000       0.00000000       0.00000000     -26.30663109
Br       0.00000000       0.00000000       1.64969697       0.00000000       0.00000000      26.30663109
2
Properties=species:S:1:pos:R:3:forces:R:3 energy=1.572430286454968 pbc="F F F"
Br       0.00000000       0.00000000       0.00000000       0.00000000       0.00000000     -21.82966805
Br       0.00000000       0.00000000       1.70848485       0.00000000       0.00000000      21.82966805
2
Properties=species:S:1:pos:R:3:forces:R:3 energy=0.4169125167764806 pbc="F F F"
Br       0.00000000       0.00000000       0.00000000       0.00000000       0.00000000     -17.55251503
Br       0.00000000       0.00000000       1.76727273       0.00000000       0.00000000      17.55251503
2
Properties=species:S:1:pos:R:3:forces:R:3 energy=-0.5019451162826695 pbc="F F F"
Br       0.00000000       0.00000000       0.00000000       0.00000000       0.00000000     -13.80850506
Br       0.00000000       0.00000000       1.82606061       0.00000000       0.00000000      13.80850506
2
Properties=species:S:1:pos:R:3:forces:R:3 energy=-1.2186452356399082 pbc="F F F"
Br       0.00000000       0.00000000       0.00000000       0.00000000       0.00000000     -10.67383862
Br       0.00000000       0.00000000       1.88484848       0.00000000       0.00000000      10.67383862
2
Properties=species:S:1:pos:R:3:forces:R:3 energy=-1.7680758767652693 pbc="F F F"
Br       0.00000000       0.00000000       0.00000000       0.00000000       0.00000000      -8.10718441
Br       0.00000000       0.00000000       1.94363636       0.00000000       0.00000000       8.10718441
2
Properties=species:S:1:pos:R:3:forces:R:3 energy=-2.1815751500307687 pbc="F F F"
Br       0.00000000       0.00000000       0.00000000       0.00000000       0.00000000      -6.03593397
Br       0.00000000       0.00000000       2.00242424       0.00000000       0.00000000       6.03593397
2
Properties=species:S:1:pos:R:3:forces:R:3 energy=-2.4856609014634934 pbc="F F F"
Br       0.00000000       0.00000000       0.00000000       0.00000000       0.00000000      -4.36768627
Br       0.00000000       0.00000000       2.06121212       0.00000000       0.00000000       4.36768627
2
Properties=species:S:1:pos:R:3:forces:R:3 energy=-2.7009015915733228 pbc="F F F"
Br       0.00000000       0.00000000       0.00000000       0.00000000       0.00000000      -2.99548936
Br       0.00000000       0.00000000       2.12000000       0.00000000       0.00000000       2.99548936
2
Properties=species:S:1:pos:R:3:forces:R:3 energy=-2.8417692512782446 pbc="F F F"
Br       0.00000000       0.00000000       0.00000000       0.00000000       0.00000000      -1.82422853
Br       0.00000000       0.00000000       2.17878788       0.00000000       0.00000000       1.82422853
2
Properties=species:S:1:pos:R:3:forces:R:3 energy=-2.918150995507238 pbc="F F F"
Br       0.00000000       0.00000000       0.00000000       0.00000000       0.00000000      -0.79532140
Br       0.00000000       0.00000000       2.23757576       0.00000000       0.00000000       0.79532140
2
Properties=species:S:1:pos:R:3:forces:R:3 energy=-2.9376266548933634 pbc="F F F"
Br       0.00000000       0.00000000       0.00000000       0.00000000       0.00000000       0.11316120
Br       0.00000000       0.00000000       2.29636364       0.00000000       0.00000000      -0.11316120
2
Properties=species:S:1:pos:R:3:forces:R:3 energy=-2.9071517725236387 pbc="F F F"
Br       0.00000000       0.00000000       0.00000000       0.00000000       0.00000000       0.90387166
Br       0.00000000       0.00000000       2.35515152       0.00000000       0.00000000      -0.90387166
2
Properties=species:S:1:pos:R:3:forces:R:3 energy=-2.8336953704703176 pbc="F F F"
Br       0.00000000       0.00000000       0.00000000       0.00000000       0.00000000       1.57508874
Br       0.00000000       0.00000000       2.41393939       0.00000000       0.00000000      -1.57508874
2
Properties=species:S:1:pos:R:3:forces:R:3 energy=-2.724359365820794 pbc="F F F"
Br       0.00000000       0.00000000       0.00000000       0.00000000       0.00000000       2.12363410
Br       0.00000000       0.00000000       2.47272727       0.00000000       0.00000000      -2.12363410
2
Properties=species:S:1:pos:R:3:forces:R:3 energy=-2.5865738576686437 pbc="F F F"
Br       0.00000000       0.00000000       0.00000000       0.00000000       0.00000000       2.54095817
Br       0.00000000       0.00000000       2.53151515       0.00000000       0.00000000      -2.54095817
2
Properties=species:S:1:pos:R:3:forces:R:3 energy=-2.4284546789545454 pbc="F F F"
Br       0.00000000       0.00000000       0.00000000       0.00000000       0.00000000       2.81290674
Br       0.00000000       0.00000000       2.59030303       0.00000000       0.00000000      -2.81290674
2
Properties=species:S:1:pos:R:3:forces:R:3 energy=-2.258934231245406 pbc="F F F"
Br       0.00000000       0.00000000       0.00000000       0.00000000       0.00000000       2.92768979
Br       0.00000000       0.00000000       2.64909091       0.00000000       0.00000000      -2.92768979
2
Properties=species:S:1:pos:R:3:forces:R:3 energy=-2.087275448285981 pbc="F F F"
Br       0.00000000       0.00000000       0.00000000       0.00000000       0.00000000       2.88776469
Br       0.00000000       0.00000000       2.70787879       0.00000000       0.00000000      -2.88776469
2
Properties=species:S:1:pos:R:3:forces:R:3 energy=-1.921991640290218 pbc="F F F"
Br       0.00000000       0.00000000       0.00000000       0.00000000       0.00000000       2.71634889
Br       0.00000000       0.00000000       2.76666667       0.00000000       0.00000000      -2.71634889
2
Properties=species:S:1:pos:R:3:forces:R:3 energy=-1.7696910169685403 pbc="F F F"
Br       0.00000000       0.00000000       0.00000000       0.00000000       0.00000000       2.45363355
Br       0.00000000       0.00000000       2.82545455       0.00000000       0.00000000      -2.45363355
2
Properties=species:S:1:pos:R:3:forces:R:3 energy=-1.6343828491128918 pbc="F F F"
Br       0.00000000       0.00000000       0.00000000       0.00000000       0.00000000       2.14582634
Br       0.00000000       0.00000000       2.88424242       0.00000000       0.00000000      -2.14582634
2
Properties=species:S:1:pos:R:3:forces:R:3 energy=-1.5174674056753972 pbc="F F F"
Br       0.00000000       0.00000000       0.00000000       0.00000000       0.00000000       1.83386326
Br       0.00000000       0.00000000       2.94303030       0.00000000       0.00000000      -1.83386326
2
Properties=species:S:1:pos:R:3:forces:R:3 energy=-1.4182722985694736 pbc="F F F"
Br       0.00000000       0.00000000       0.00000000       0.00000000       0.00000000       1.54654205
Br       0.00000000       0.00000000       3.00181818       0.00000000       0.00000000      -1.54654205
2
Properties=species:S:1:pos:R:3:forces:R:3 energy=-1.334842980508314 pbc="F F F"
Br       0.00000000       0.00000000       0.00000000       0.00000000       0.00000000       1.29904926
Br       0.00000000       0.00000000       3.06060606       0.00000000       0.00000000      -1.29904926
2
Properties=species:S:1:pos:R:3:forces:R:3 energy=-1.2646742626901037 pbc="F F F"
Br       0.00000000       0.00000000       0.00000000       0.00000000       0.00000000       1.09530544
Br       0.00000000       0.00000000       3.11939394       0.00000000       0.00000000      -1.09530544
2
Properties=species:S:1:pos:R:3:forces:R:3 energy=-1.2052711617536973 pbc="F F F"
Br       0.00000000       0.00000000       0.00000000       0.00000000       0.00000000       0.93180752
Br       0.00000000       0.00000000       3.17818182       0.00000000       0.00000000      -0.93180752
2
Properties=species:S:1:pos:R:3:forces:R:3 energy=-1.1544675338579977 pbc="F F F"
Br       0.00000000       0.00000000       0.00000000       0.00000000       0.00000000       0.80141681
Br       0.00000000       0.00000000       3.23696970       0.00000000       0.00000000      -0.80141681
2
Properties=species:S:1:pos:R:3:forces:R:3 energy=-1.1105462621891515 pbc="F F F"
Br       0.00000000       0.00000000       0.00000000       0.00000000       0.00000000       0.69645888
Br       0.00000000       0.00000000       3.29575758       0.00000000       0.00000000      -0.69645888
2
Properties=species:S:1:pos:R:3:forces:R:3 energy=-1.0722061213063467 pbc="F F F"
Br       0.00000000       0.00000000       0.00000000       0.00000000       0.00000000       0.61067772
Br       0.00000000       0.00000000       3.35454545       0.00000000       0.00000000      -0.61067772
2
Properties=species:S:1:pos:R:3:forces:R:3 energy=-1.0384523238472227 pbc="F F F"
Br       0.00000000       0.00000000       0.00000000       0.00000000       0.00000000       0.53991318
Br       0.00000000       0.00000000       3.41333333       0.00000000       0.00000000      -0.53991318
2
Properties=species:S:1:pos:R:3:forces:R:3 energy=-1.0084777857395728 pbc="F F F"
Br       0.00000000       0.00000000       0.00000000       0.00000000       0.00000000       0.48183230
Br       0.00000000       0.00000000       3.47212121       0.00000000       0.00000000      -0.48183230
2
Properties=species:S:1:pos:R:3:forces:R:3 energy=-0.9815772783377883 pbc="F F F"
Br       0.00000000       0.00000000       0.00000000       0.00000000       0.00000000       0.43516082
Br       0.00000000       0.00000000       3.53090909       0.00000000       0.00000000      -0.43516082
2
Properties=species:S:1:pos:R:3:forces:R:3 energy=-0.957109189415343 pbc="F F F"
Br       0.00000000       0.00000000       0.00000000       0.00000000       0.00000000       0.39889297
Br       0.00000000       0.00000000       3.58969697       0.00000000       0.00000000      -0.39889297
2
Properties=species:S:1:pos:R:3:forces:R:3 energy=-0.9344971180669849 pbc="F F F"
Br       0.00000000       0.00000000       0.00000000       0.00000000       0.00000000       0.37177771
Br       0.00000000       0.00000000       3.64848485       0.00000000       0.00000000      -0.37177771
2
Properties=species:S:1:pos:R:3:forces:R:3 energy=-0.9132503527799865 pbc="F F F"
Br       0.00000000       0.00000000       0.00000000       0.00000000       0.00000000       0.35214829
Br       0.00000000       0.00000000       3.70727273       0.00000000       0.00000000      -0.35214829
2
Properties=species:S:1:pos:R:3:forces:R:3 energy=-0.892984960806976 pbc="F F F"
Br       0.00000000       0.00000000       0.00000000       0.00000000       0.00000000       0.33803359
Br       0.00000000       0.00000000       3.76606061       0.00000000       0.00000000      -0.33803359
2
Properties=species:S:1:pos:R:3:forces:R:3 energy=-0.8734373926961053 pbc="F F F"
Br       0.00000000       0.00000000       0.00000000       0.00000000       0.00000000       0.32740673
Br       0.00000000       0.00000000       3.82484848       0.00000000       0.00000000      -0.32740673
2
Properties=species:S:1:pos:R:3:forces:R:3 energy=-0.8544574325198795 pbc="F F F"
Br       0.00000000       0.00000000       0.00000000       0.00000000       0.00000000       0.31844795
Br       0.00000000       0.00000000       3.88363636       0.00000000       0.00000000      -0.31844795
2
Properties=species:S:1:pos:R:3:forces:R:3 energy=-0.835991085422421 pbc="F F F"
Br       0.00000000       0.00000000       0.00000000       0.00000000       0.00000000       0.30974728
Br       0.00000000       0.00000000       3.94242424       0.00000000       0.00000000      -0.30974728
2
Properties=species:S:1:pos:R:3:forces:R:3 energy=-0.8180513232422214 pbc="F F F"
Br       0.00000000       0.00000000       0.00000000       0.00000000       0.00000000       0.30042988
Br       0.00000000       0.00000000       4.00121212       0.00000000       0.00000000      -0.30042988
2
Properties=species:S:1:pos:R:3:forces:R:3 energy=-0.8006863784249024 pbc="F F F"
Br       0.00000000       0.00000000       0.00000000       0.00000000       0.00000000       0.29018497
Br       0.00000000       0.00000000       4.06000000       0.00000000       0.00000000      -0.29018497
2
Properties=species:S:1:pos:R:3:forces:R:3 energy=-0.7839470452478587 pbc="F F F"
Br       0.00000000       0.00000000       0.00000000       0.00000000       0.00000000       0.27923113
Br       0.00000000       0.00000000       4.11878788       0.00000000       0.00000000      -0.27923113
2
Properties=species:S:1:pos:R:3:forces:R:3 energy=-0.767857486631566 pbc="F F F"
Br       0.00000000       0.00000000       0.00000000       0.00000000       0.00000000       0.26818299
Br       0.00000000       0.00000000       4.17757576       0.00000000       0.00000000      -0.26818299
2
Properties=species:S:1:pos:R:3:forces:R:3 energy=-0.7524004294289457 pbc="F F F"
Br       0.00000000       0.00000000       0.00000000       0.00000000       0.00000000       0.25786248
Br       0.00000000       0.00000000       4.23636364       0.00000000       0.00000000      -0.25786248
2
Properties=species:S:1:pos:R:3:forces:R:3 energy=-0.7375090718648986 pbc="F F F"
Br       0.00000000       0.00000000       0.00000000       0.00000000       0.00000000       0.24905132
Br       0.00000000       0.00000000       4.29515152       0.00000000       0.00000000      -0.24905132
2
Properties=species:S:1:pos:R:3:forces:R:3 energy=-0.7230779684275683 pbc="F F F"
Br       0.00000000       0.00000000       0.00000000       0.00000000       0.00000000       0.24228108
Br       0.00000000       0.00000000       4.35393939       0.00000000       0.00000000      -0.24228108
2
Properties=species:S:1:pos:R:3:forces:R:3 energy=-0.7089800530380808 pbc="F F F"
Br       0.00000000       0.00000000       0.00000000       0.00000000       0.00000000       0.23769142
Br       0.00000000       0.00000000       4.41272727       0.00000000       0.00000000      -0.23769142
2
Properties=species:S:1:pos:R:3:forces:R:3 energy=-0.6950926512262875 pbc="F F F"
Br       0.00000000       0.00000000       0.00000000       0.00000000       0.00000000       0.23505187
Br       0.00000000       0.00000000       4.47151515       0.00000000       0.00000000      -0.23505187
2
Properties=species:S:1:pos:R:3:forces:R:3 energy=-0.6813146456844855 pbc="F F F"
Br       0.00000000       0.00000000       0.00000000       0.00000000       0.00000000       0.23387539
Br       0.00000000       0.00000000       4.53030303       0.00000000       0.00000000      -0.23387539
2
Properties=species:S:1:pos:R:3:forces:R:3 energy=-0.6675772629162305 pbc="F F F"
Br       0.00000000       0.00000000       0.00000000       0.00000000       0.00000000       0.23358646
Br       0.00000000       0.00000000       4.58909091       0.00000000       0.00000000      -0.23358646
2
Properties=species:S:1:pos:R:3:forces:R:3 energy=-0.6538438672879355 pbc="F F F"
Br       0.00000000       0.00000000       0.00000000       0.00000000       0.00000000       0.23365942
Br       0.00000000       0.00000000       4.64787879       0.00000000       0.00000000      -0.23365942
2
Properties=species:S:1:pos:R:3:forces:R:3 energy=-0.6401056568231576 pbc="F F F"
Br       0.00000000       0.00000000       0.00000000       0.00000000       0.00000000       0.23367651
Br       0.00000000       0.00000000       4.70666667       0.00000000       0.00000000      -0.23367651
2
Properties=species:S:1:pos:R:3:forces:R:3 energy=-0.6263761538167428 pbc="F F F"
Br       0.00000000       0.00000000       0.00000000       0.00000000       0.00000000       0.23334104
Br       0.00000000       0.00000000       4.76545455       0.00000000       0.00000000      -0.23334104
2
Properties=species:S:1:pos:R:3:forces:R:3 energy=-0.6126804847102778 pbc="F F F"
Br       0.00000000       0.00000000       0.00000000       0.00000000       0.00000000       0.23246814
Br       0.00000000       0.00000000       4.82424242       0.00000000       0.00000000      -0.23246814
2
Properties=species:S:1:pos:R:3:forces:R:3 energy=-0.5990565139562716 pbc="F F F"
Br       0.00000000       0.00000000       0.00000000       0.00000000       0.00000000       0.23096476
Br       0.00000000       0.00000000       4.88303030       0.00000000       0.00000000      -0.23096476
2
Properties=species:S:1:pos:R:3:forces:R:3 energy=-0.5855377620357269 pbc="F F F"
Br       0.00000000       0.00000000       0.00000000       0.00000000       0.00000000       0.22881168
Br       0.00000000       0.00000000       4.94181818       0.00000000       0.00000000      -0.22881168
2
Properties=species:S:1:pos:R:3:forces:R:3 energy=-0.5721659119301415 pbc="F F F"
Br       0.00000000       0.00000000       0.00000000       0.00000000       0.00000000       0.22600564
Br       0.00000000       0.00000000       5.00060606       0.00000000       0.00000000      -0.22600564
2
Properties=species:S:1:pos:R:3:forces:R:3 energy=-0.5589784071876378 pbc="F F F"
Br       0.00000000       0.00000000       0.00000000       0.00000000       0.00000000       0.22247635
Br       0.00000000       0.00000000       5.05939394       0.00000000       0.00000000      -0.22247635
2
Properties=species:S:1:pos:R:3:forces:R:3 energy=-0.5460262752956616 pbc="F F F"
Br       0.00000000       0.00000000       0.00000000       0.00000000       0.00000000       0.21800986
Br       0.00000000       0.00000000       5.11818182       0.00000000       0.00000000      -0.21800986
2
Properties=species:S:1:pos:R:3:forces:R:3 energy=-0.5333726254775504 pbc="F F F"
Br       0.00000000       0.00000000       0.00000000       0.00000000       0.00000000       0.21221446
Br       0.00000000       0.00000000       5.17696970       0.00000000       0.00000000      -0.21221446
2
Properties=species:S:1:pos:R:3:forces:R:3 energy=-0.5211116338558377 pbc="F F F"
Br       0.00000000       0.00000000       0.00000000       0.00000000       0.00000000       0.20457815
Br       0.00000000       0.00000000       5.23575758       0.00000000       0.00000000      -0.20457815
2
Properties=species:S:1:pos:R:3:forces:R:3 energy=-0.509366225206751 pbc="F F F"
Br       0.00000000       0.00000000       0.00000000       0.00000000       0.00000000       0.19456701
Br       0.00000000       0.00000000       5.29454545       0.00000000       0.00000000      -0.19456701
2
Properties=species:S:1:pos:R:3:forces:R:3 energy=-0.49828918227377283 pbc="F F F"
Br       0.00000000       0.00000000       0.00000000       0.00000000       0.00000000       0.18178923
Br       0.00000000       0.00000000       5.35333333       0.00000000       0.00000000      -0.18178923
2
Properties=species:S:1:pos:R:3:forces:R:3 energy=-0.4880495912546427 pbc="F F F"
Br       0.00000000       0.00000000       0.00000000       0.00000000       0.00000000       0.16612071
Br       0.00000000       0.00000000       5.41212121       0.00000000       0.00000000      -0.16612071
2
Properties=species:S:1:pos:R:3:forces:R:3 energy=-0.4788099913396413 pbc="F F F"
Br       0.00000000       0.00000000       0.00000000       0.00000000       0.00000000       0.14777522
Br       0.00000000       0.00000000       5.47090909       0.00000000       0.00000000      -0.14777522
2
Properties=species:S:1:pos:R:3:forces:R:3 energy=-0.4707151335883718 pbc="F F F"
Br       0.00000000       0.00000000       0.00000000       0.00000000       0.00000000       0.12731226
Br       0.00000000       0.00000000       5.52969697       0.00000000       0.00000000      -0.12731226
2
Properties=species:S:1:pos:R:3:forces:R:3 energy=-0.46386714965554443 pbc="F F F"
Br       0.00000000       0.00000000       0.00000000       0.00000000       0.00000000       0.10554409
Br       0.00000000       0.00000000       5.58848485       0.00000000       0.00000000      -0.10554409
2
Properties=species:S:1:pos:R:3:forces:R:3 energy=-0.4583148372101164 pbc="F F F"
Br       0.00000000       0.00000000       0.00000000       0.00000000       0.00000000       0.08350389
Br       0.00000000       0.00000000       5.64727273       0.00000000       0.00000000      -0.08350389
2
Properties=species:S:1:pos:R:3:forces:R:3 energy=-0.45403503031597775 pbc="F F F"
Br       0.00000000       0.00000000       0.00000000       0.00000000       0.00000000       0.06227480
Br       0.00000000       0.00000000       5.70606061       0.00000000       0.00000000      -0.06227480
2
Properties=species:S:1:pos:R:3:forces:R:3 energy=-0.4509488849632187 pbc="F F F"
Br       0.00000000       0.00000000       0.00000000       0.00000000       0.00000000       0.04293418
Br       0.00000000       0.00000000       5.76484848       0.00000000       0.00000000      -0.04293418
2
Properties=species:S:1:pos:R:3:forces:R:3 energy=-0.44892580505513 pbc="F F F"
Br       0.00000000       0.00000000       0.00000000       0.00000000       0.00000000       0.02648794
Br       0.00000000       0.00000000       5.82363636       0.00000000       0.00000000      -0.02648794
2
Properties=species:S:1:pos:R:3:forces:R:3 energy=-0.4477649947706445 pbc="F F F"
Br       0.00000000       0.00000000       0.00000000       0.00000000       0.00000000       0.01382917
Br       0.00000000       0.00000000       5.88242424       0.00000000       0.00000000      -0.01382917
2
Properties=species:S:1:pos:R:3:forces:R:3 energy=-0.44721296242702324 pbc="F F F"
Br       0.00000000       0.00000000       0.00000000       0.00000000       0.00000000       0.00569049
Br       0.00000000       0.00000000       5.94121212       0.00000000       0.00000000      -0.00569049
2
Properties=species:S:1:pos:R:3:forces:R:3 energy=-0.44699283467971823 pbc="F F F"
Br       0.00000000       0.00000000       0.00000000       0.00000000       0.00000000       0.00273432
Br       0.00000000       0.00000000       6.00000000       0.00000000       0.00000000      -0.00273432
