2
Properties=species:S:1:pos:R:3:forces:R:3 energy=8639.680815853648 pbc="F F F"
Cd       0.00000000       0.00000000       0.00000000       0.00000000       0.00000000 -142872.09375000
Cd       0.00000000       0.00000000       0.18000000       0.00000000       0.00000000  142872.09375000
2
Properties=species:S:1:pos:R:3:forces:R:3 energy=3557.3480521817737 pbc="F F F"
Cd       0.00000000       0.00000000       0.00000000       0.00000000       0.00000000  -49323.89062500
Cd       0.00000000       0.00000000       0.23878788       0.00000000       0.00000000   49323.89062500
2
Properties=species:S:1:pos:R:3:forces:R:3 energy=1664.7595512083788 pbc="F F F"
Cd       0.00000000       0.00000000       0.00000000       0.00000000       0.00000000  -20063.24218750
Cd       0.00000000       0.00000000       0.29757576       0.00000000       0.00000000   20063.24218750
2
Properties=species:S:1:pos:R:3:forces:R:3 energy=857.7247001373279 pbc="F F F"
Cd       0.00000000       0.00000000       0.00000000       0.00000000       0.00000000   -9029.36132812
Cd       0.00000000       0.00000000       0.35636364       0.00000000       0.00000000    9029.36132812
2
Properties=species:S:1:pos:R:3:forces:R:3 energy=482.9238883760855 pbc="F F F"
Cd       0.00000000       0.00000000       0.00000000       0.00000000       0.00000000   -4346.07714844
Cd       0.00000000       0.00000000       0.41515152       0.00000000       0.00000000    4346.07714844
2
Properties=species:S:1:pos:R:3:forces:R:3 energy=298.534148404858 pbc="F F F"
Cd       0.00000000       0.00000000       0.00000000       0.00000000       0.00000000   -2190.44140625
Cd       0.00000000       0.00000000       0.47393939       0.00000000       0.00000000    2190.44140625
2
Properties=species:S:1:pos:R:3:forces:R:3 energy=204.34077380274715 pbc="F F F"
Cd       0.00000000       0.00000000       0.00000000       0.00000000       0.00000000   -1133.27465820
Cd       0.00000000       0.00000000       0.53272727       0.00000000       0.00000000    1133.27465820
2
Properties=species:S:1:pos:R:3:forces:R:3 energy=155.50770500577607 pbc="F F F"
Cd       0.00000000       0.00000000       0.00000000       0.00000000       0.00000000    -585.23059082
Cd       0.00000000       0.00000000       0.59151515       0.00000000       0.00000000     585.23059082
2
Properties=species:S:1:pos:R:3:forces:R:3 energy=130.69726503099852 pbc="F F F"
Cd       0.00000000       0.00000000       0.00000000       0.00000000       0.00000000    -288.28244019
Cd       0.00000000       0.00000000       0.65030303       0.00000000       0.00000000     288.28244019
2
Properties=species:S:1:pos:R:3:forces:R:3 energy=118.99324753122255 pbc="F F F"
Cd       0.00000000       0.00000000       0.00000000       0.00000000       0.00000000    -127.02789307
Cd       0.00000000       0.00000000       0.70909091       0.00000000       0.00000000     127.02789307
2
Properties=species:S:1:pos:R:3:forces:R:3 energy=114.10653661969334 pbc="F F F"
Cd       0.00000000       0.00000000       0.00000000       0.00000000       0.00000000     -51.12689972
Cd       0.00000000       0.00000000       0.76787879       0.00000000       0.00000000      51.12689972
2
Properties=species:S:1:pos:R:3:forces:R:3 energy=111.74983221822585 pbc="F F F"
Cd       0.00000000       0.00000000       0.00000000       0.00000000       0.00000000     -38.27035141
Cd       0.00000000       0.00000000       0.82666667       0.00000000       0.00000000      38.27035141
2
Properties=species:S:1:pos:R:3:forces:R:3 energy=108.68785908360796 pbc="F F F"
Cd       0.00000000       0.00000000       0.00000000       0.00000000       0.00000000     -72.06679535
Cd       0.00000000       0.00000000       0.88545455       0.00000000       0.00000000      72.06679535
2
Properties=species:S:1:pos:R:3:forces:R:3 energy=102.79047506411423 pbc="F F F"
Cd       0.00000000       0.00000000       0.00000000       0.00000000       0.00000000    -130.52040100
Cd       0.00000000       0.00000000       0.94424242       0.00000000       0.00000000     130.52040100
2
Properties=species:S:1:pos:R:3:forces:R:3 energy=93.35431869286371 pbc="F F F"
Cd       0.00000000       0.00000000       0.00000000       0.00000000       0.00000000    -188.62564087
Cd       0.00000000       0.00000000       1.00303030       0.00000000       0.00000000     188.62564087
2
Properties=species:S:1:pos:R:3:forces:R:3 energy=80.97350624415034 pbc="F F F"
Cd       0.00000000       0.00000000       0.00000000       0.00000000       0.00000000    -228.64926147
Cd       0.00000000       0.00000000       1.06181818       0.00000000       0.00000000     228.64926147
2
Properties=species:S:1:pos:R:3:forces:R:3 energy=67.0130204116536 pbc="F F F"
Cd       0.00000000       0.00000000       0.00000000       0.00000000       0.00000000    -241.03851318
Cd       0.00000000       0.00000000       1.12060606       0.00000000       0.00000000     241.03851318
2
Properties=species:S:1:pos:R:3:forces:R:3 energy=53.25016306923478 pbc="F F F"
Cd       0.00000000       0.00000000       0.00000000       0.00000000       0.00000000    -222.88415527
Cd       0.00000000       0.00000000       1.17939394       0.00000000       0.00000000     222.88415527
2
Properties=species:S:1:pos:R:3:forces:R:3 energy=41.07833262218322 pbc="F F F"
Cd       0.00000000       0.00000000       0.00000000       0.00000000       0.00000000    -190.73025513
Cd       0.00000000       0.00000000       1.23818182       0.00000000       0.00000000     190.73025513
2
Properties=species:S:1:pos:R:3:forces:R:3 energy=30.804877454890224 pbc="F F F"
Cd       0.00000000       0.00000000       0.00000000       0.00000000       0.00000000    -158.77566528
Cd       0.00000000       0.00000000       1.29696970       0.00000000       0.00000000     158.77566528
2
Properties=species:S:1:pos:R:3:forces:R:3 energy=22.49687917716292 pbc="F F F"
Cd       0.00000000       0.00000000       0.00000000       0.00000000       0.00000000    -122.70150757
Cd       0.00000000       0.00000000       1.35575758       0.00000000       0.00000000     122.70150757
2
Properties=species:S:1:pos:R:3:forces:R:3 energy=16.419480407195245 pbc="F F F"
Cd       0.00000000       0.00000000       0.00000000       0.00000000       0.00000000     -85.09259033
Cd       0.00000000       0.00000000       1.41454545       0.00000000       0.00000000      85.09259033
2
Properties=species:S:1:pos:R:3:forces:R:3 energy=12.263043333854817 pbc="F F F"
Cd       0.00000000       0.00000000       0.00000000       0.00000000       0.00000000     -58.45457840
Cd       0.00000000       0.00000000       1.47333333       0.00000000       0.00000000      58.45457840
2
Properties=species:S:1:pos:R:3:forces:R:3 energy=9.340852127687672 pbc="F F F"
Cd       0.00000000       0.00000000       0.00000000       0.00000000       0.00000000     -42.24122620
Cd       0.00000000       0.00000000       1.53212121       0.00000000       0.00000000      42.24122620
2
Properties=species:S:1:pos:R:3:forces:R:3 energy=7.193160214007083 pbc="F F F"
Cd       0.00000000       0.00000000       0.00000000       0.00000000       0.00000000     -31.41147995
Cd       0.00000000       0.00000000       1.59090909       0.00000000       0.00000000      31.41147995
2
Properties=species:S:1:pos:R:3:forces:R:3 energy=5.593773054212059 pbc="F F F"
Cd       0.00000000       0.00000000       0.00000000       0.00000000       0.00000000     -23.39665794
Cd       0.00000000       0.00000000       1.64969697       0.00000000       0.00000000      23.39665794
2
Properties=species:S:1:pos:R:3:forces:R:3 energy=4.399010901090431 pbc="F F F"
Cd       0.00000000       0.00000000       0.00000000       0.00000000       0.00000000     -17.58807755
Cd       0.00000000       0.00000000       1.70848485       0.00000000       0.00000000      17.58807755
2
Properties=species:S:1:pos:R:3:forces:R:3 energy=3.490731758868088 pbc="F F F"
Cd       0.00000000       0.00000000       0.00000000       0.00000000       0.00000000     -13.56740189
Cd       0.00000000       0.00000000       1.76727273       0.00000000       0.00000000      13.56740189
2
Properties=species:S:1:pos:R:3:forces:R:3 energy=2.7788531428557817 pbc="F F F"
Cd       0.00000000       0.00000000       0.00000000       0.00000000       0.00000000     -10.82338428
Cd       0.00000000       0.00000000       1.82606061       0.00000000       0.00000000      10.82338428
2
Properties=species:S:1:pos:R:3:forces:R:3 energy=2.2018257759841124 pbc="F F F"
Cd       0.00000000       0.00000000       0.00000000       0.00000000       0.00000000      -8.91768646
Cd       0.00000000       0.00000000       1.88484848       0.00000000       0.00000000       8.91768646
2
Properties=species:S:1:pos:R:3:forces:R:3 energy=1.7201327727910833 pbc="F F F"
Cd       0.00000000       0.00000000       0.00000000       0.00000000       0.00000000      -7.53640842
Cd       0.00000000       0.00000000       1.94363636       0.00000000       0.00000000       7.53640842
2
Properties=species:S:1:pos:R:3:forces:R:3 energy=1.3098552356552182 pbc="F F F"
Cd       0.00000000       0.00000000       0.00000000       0.00000000       0.00000000      -6.45677805
Cd       0.00000000       0.00000000       2.00242424       0.00000000       0.00000000       6.45677805
2
Properties=species:S:1:pos:R:3:forces:R:3 energy=0.9581597325234041 pbc="F F F"
Cd       0.00000000       0.00000000       0.00000000       0.00000000       0.00000000      -5.52320480
Cd       0.00000000       0.00000000       2.06121212       0.00000000       0.00000000       5.52320480
2
Properties=species:S:1:pos:R:3:forces:R:3 energy=0.6592644241109014 pbc="F F F"
Cd       0.00000000       0.00000000       0.00000000       0.00000000       0.00000000      -4.65301418
Cd       0.00000000       0.00000000       2.12000000       0.00000000       0.00000000       4.65301418
2
Properties=species:S:1:pos:R:3:forces:R:3 energy=0.41014387120736573 pbc="F F F"
Cd       0.00000000       0.00000000       0.00000000       0.00000000       0.00000000      -3.83164740
Cd       0.00000000       0.00000000       2.17878788       0.00000000       0.00000000       3.83164740
2
Properties=species:S:1:pos:R:3:forces:R:3 energy=0.20736449470090004 pbc="F F F"
Cd       0.00000000       0.00000000       0.00000000       0.00000000       0.00000000      -3.08128762
Cd       0.00000000       0.00000000       2.23757576       0.00000000       0.00000000       3.08128762
2
Properties=species:S:1:pos:R:3:forces:R:3 energy=0.04596017800372024 pbc="F F F"
Cd       0.00000000       0.00000000       0.00000000       0.00000000       0.00000000      -2.42735696
Cd       0.00000000       0.00000000       2.29636364       0.00000000       0.00000000       2.42735696
2
Properties=species:S:1:pos:R:3:forces:R:3 energy=-0.08017611522874829 pbc="F F F"
Cd       0.00000000       0.00000000       0.00000000       0.00000000       0.00000000      -1.88225996
Cd       0.00000000       0.00000000       2.35515152       0.00000000       0.00000000       1.88225996
2
Properties=species:S:1:pos:R:3:forces:R:3 energy=-0.1774424509256389 pbc="F F F"
Cd       0.00000000       0.00000000       0.00000000       0.00000000       0.00000000      -1.44375575
Cd       0.00000000       0.00000000       2.41393939       0.00000000       0.00000000       1.44375575
2
Properties=species:S:1:pos:R:3:forces:R:3 energy=-0.251780776961015 pbc="F F F"
Cd       0.00000000       0.00000000       0.00000000       0.00000000       0.00000000      -1.09973383
Cd       0.00000000       0.00000000       2.47272727       0.00000000       0.00000000       1.09973383
2
Properties=species:S:1:pos:R:3:forces:R:3 energy=-0.30828035263789483 pbc="F F F"
Cd       0.00000000       0.00000000       0.00000000       0.00000000       0.00000000      -0.83413517
Cd       0.00000000       0.00000000       2.53151515       0.00000000       0.00000000       0.83413517
2
Properties=species:S:1:pos:R:3:forces:R:3 energy=-0.35109017703851964 pbc="F F F"
Cd       0.00000000       0.00000000       0.00000000       0.00000000       0.00000000      -0.63167691
Cd       0.00000000       0.00000000       2.59030303       0.00000000       0.00000000       0.63167691
2
Properties=species:S:1:pos:R:3:forces:R:3 energy=-0.3835476376131369 pbc="F F F"
Cd       0.00000000       0.00000000       0.00000000       0.00000000       0.00000000      -0.48020393
Cd       0.00000000       0.00000000       2.64909091       0.00000000       0.00000000       0.48020393
2
Properties=species:S:1:pos:R:3:forces:R:3 energy=-0.40836884379178956 pbc="F F F"
Cd       0.00000000       0.00000000       0.00000000       0.00000000       0.00000000      -0.37053657
Cd       0.00000000       0.00000000       2.70787879       0.00000000       0.00000000       0.37053657
2
Properties=species:S:1:pos:R:3:forces:R:3 energy=-0.4277743589238125 pbc="F F F"
Cd       0.00000000       0.00000000       0.00000000       0.00000000       0.00000000      -0.29453576
Cd       0.00000000       0.00000000       2.76666667       0.00000000       0.00000000       0.29453576
2
Properties=species:S:1:pos:R:3:forces:R:3 energy=-0.44347399375231245 pbc="F F F"
Cd       0.00000000       0.00000000       0.00000000       0.00000000       0.00000000      -0.24265158
Cd       0.00000000       0.00000000       2.82545455       0.00000000       0.00000000       0.24265158
2
Properties=species:S:1:pos:R:3:forces:R:3 energy=-0.45653859900459876 pbc="F F F"
Cd       0.00000000       0.00000000       0.00000000       0.00000000       0.00000000      -0.20271435
Cd       0.00000000       0.00000000       2.88424242       0.00000000       0.00000000       0.20271435
2
Properties=species:S:1:pos:R:3:forces:R:3 energy=-0.4673055462508366 pbc="F F F"
Cd       0.00000000       0.00000000       0.00000000       0.00000000       0.00000000      -0.16290405
Cd       0.00000000       0.00000000       2.94303030       0.00000000       0.00000000       0.16290405
2
Properties=species:S:1:pos:R:3:forces:R:3 energy=-0.47559745175621987 pbc="F F F"
Cd       0.00000000       0.00000000       0.00000000       0.00000000       0.00000000      -0.11857004
Cd       0.00000000       0.00000000       3.00181818       0.00000000       0.00000000       0.11857004
2
Properties=species:S:1:pos:R:3:forces:R:3 energy=-0.48122624571656636 pbc="F F F"
Cd       0.00000000       0.00000000       0.00000000       0.00000000       0.00000000      -0.07319467
Cd       0.00000000       0.00000000       3.06060606       0.00000000       0.00000000       0.07319467
2
Properties=species:S:1:pos:R:3:forces:R:3 energy=-0.48426090874200617 pbc="F F F"
Cd       0.00000000       0.00000000       0.00000000       0.00000000       0.00000000      -0.03061952
Cd       0.00000000       0.00000000       3.11939394       0.00000000       0.00000000       0.03061952
2
Properties=species:S:1:pos:R:3:forces:R:3 energy=-0.48488865541311693 pbc="F F F"
Cd       0.00000000       0.00000000       0.00000000       0.00000000       0.00000000       0.00881140
Cd       0.00000000       0.00000000       3.17818182       0.00000000       0.00000000      -0.00881140
2
Properties=species:S:1:pos:R:3:forces:R:3 energy=-0.4832710991719309 pbc="F F F"
Cd       0.00000000       0.00000000       0.00000000       0.00000000       0.00000000       0.04585259
Cd       0.00000000       0.00000000       3.23696970       0.00000000       0.00000000      -0.04585259
2
Properties=species:S:1:pos:R:3:forces:R:3 energy=-0.479542971089276 pbc="F F F"
Cd       0.00000000       0.00000000       0.00000000       0.00000000       0.00000000       0.08055568
Cd       0.00000000       0.00000000       3.29575758       0.00000000       0.00000000      -0.08055568
2
Properties=species:S:1:pos:R:3:forces:R:3 energy=-0.4738552783422669 pbc="F F F"
Cd       0.00000000       0.00000000       0.00000000       0.00000000       0.00000000       0.11241582
Cd       0.00000000       0.00000000       3.35454545       0.00000000       0.00000000      -0.11241582
2
Properties=species:S:1:pos:R:3:forces:R:3 energy=-0.46639268524555066 pbc="F F F"
Cd       0.00000000       0.00000000       0.00000000       0.00000000       0.00000000       0.14084883
Cd       0.00000000       0.00000000       3.41333333       0.00000000       0.00000000      -0.14084883
2
Properties=species:S:1:pos:R:3:forces:R:3 energy=-0.457373264663897 pbc="F F F"
Cd       0.00000000       0.00000000       0.00000000       0.00000000       0.00000000       0.16527824
Cd       0.00000000       0.00000000       3.47212121       0.00000000       0.00000000      -0.16527824
2
Properties=species:S:1:pos:R:3:forces:R:3 energy=-0.4470527749603448 pbc="F F F"
Cd       0.00000000       0.00000000       0.00000000       0.00000000       0.00000000       0.18497542
Cd       0.00000000       0.00000000       3.53090909       0.00000000       0.00000000      -0.18497542
2
Properties=species:S:1:pos:R:3:forces:R:3 energy=-0.4357363976678123 pbc="F F F"
Cd       0.00000000       0.00000000       0.00000000       0.00000000       0.00000000       0.19896083
Cd       0.00000000       0.00000000       3.58969697       0.00000000       0.00000000      -0.19896083
2
Properties=species:S:1:pos:R:3:forces:R:3 energy=-0.42379324709638877 pbc="F F F"
Cd       0.00000000       0.00000000       0.00000000       0.00000000       0.00000000       0.20613870
Cd       0.00000000       0.00000000       3.64848485       0.00000000       0.00000000      -0.20613870
2
Properties=species:S:1:pos:R:3:forces:R:3 energy=-0.4116505668440702 pbc="F F F"
Cd       0.00000000       0.00000000       0.00000000       0.00000000       0.00000000       0.20564076
Cd       0.00000000       0.00000000       3.70727273       0.00000000       0.00000000      -0.20564076
2
Properties=species:S:1:pos:R:3:forces:R:3 energy=-0.3997709290202626 pbc="F F F"
Cd       0.00000000       0.00000000       0.00000000       0.00000000       0.00000000       0.19720076
Cd       0.00000000       0.00000000       3.76606061       0.00000000       0.00000000      -0.19720076
2
Properties=species:S:1:pos:R:3:forces:R:3 energy=-0.3886096398074699 pbc="F F F"
Cd       0.00000000       0.00000000       0.00000000       0.00000000       0.00000000       0.18137732
Cd       0.00000000       0.00000000       3.82484848       0.00000000       0.00000000      -0.18137732
2
Properties=species:S:1:pos:R:3:forces:R:3 energy=-0.3785639338812481 pbc="F F F"
Cd       0.00000000       0.00000000       0.00000000       0.00000000       0.00000000       0.15952156
Cd       0.00000000       0.00000000       3.88363636       0.00000000       0.00000000      -0.15952156
2
Properties=species:S:1:pos:R:3:forces:R:3 energy=-0.36993458163934445 pbc="F F F"
Cd       0.00000000       0.00000000       0.00000000       0.00000000       0.00000000       0.13354515
Cd       0.00000000       0.00000000       3.94242424       0.00000000       0.00000000      -0.13354515
2
Properties=species:S:1:pos:R:3:forces:R:3 energy=-0.3629012552284007 pbc="F F F"
Cd       0.00000000       0.00000000       0.00000000       0.00000000       0.00000000       0.10558552
Cd       0.00000000       0.00000000       4.00121212       0.00000000       0.00000000      -0.10558552
2
Properties=species:S:1:pos:R:3:forces:R:3 energy=-0.35751866962114837 pbc="F F F"
Cd       0.00000000       0.00000000       0.00000000       0.00000000       0.00000000       0.07770073
Cd       0.00000000       0.00000000       4.06000000       0.00000000       0.00000000      -0.07770073
2
Properties=species:S:1:pos:R:3:forces:R:3 energy=-0.3537290538264071 pbc="F F F"
Cd       0.00000000       0.00000000       0.00000000       0.00000000       0.00000000       0.05166120
Cd       0.00000000       0.00000000       4.11878788       0.00000000       0.00000000      -0.05166120
2
Properties=species:S:1:pos:R:3:forces:R:3 energy=-0.3513813596717555 pbc="F F F"
Cd       0.00000000       0.00000000       0.00000000       0.00000000       0.00000000       0.02883607
Cd       0.00000000       0.00000000       4.17757576       0.00000000       0.00000000      -0.02883607
2
Properties=species:S:1:pos:R:3:forces:R:3 energy=-0.3502569279387509 pbc="F F F"
Cd       0.00000000       0.00000000       0.00000000       0.00000000       0.00000000       0.01016569
Cd       0.00000000       0.00000000       4.23636364       0.00000000       0.00000000      -0.01016569
2
Properties=species:S:1:pos:R:3:forces:R:3 energy=-0.35009429481451665 pbc="F F F"
Cd       0.00000000       0.00000000       0.00000000       0.00000000       0.00000000      -0.00383353
Cd       0.00000000       0.00000000       4.29515152       0.00000000       0.00000000       0.00383353
2
Properties=species:S:1:pos:R:3:forces:R:3 energy=-0.3506134675292233 pbc="F F F"
Cd       0.00000000       0.00000000       0.00000000       0.00000000       0.00000000      -0.01304151
Cd       0.00000000       0.00000000       4.35393939       0.00000000       0.00000000       0.01304151
2
Properties=species:S:1:pos:R:3:forces:R:3 energy=-0.35153836316894244 pbc="F F F"
Cd       0.00000000       0.00000000       0.00000000       0.00000000       0.00000000      -0.01770400
Cd       0.00000000       0.00000000       4.41272727       0.00000000       0.00000000       0.01770400
2
Properties=species:S:1:pos:R:3:forces:R:3 energy=-0.35261693474672495 pbc="F F F"
Cd       0.00000000       0.00000000       0.00000000       0.00000000       0.00000000      -0.01838903
Cd       0.00000000       0.00000000       4.47151515       0.00000000       0.00000000       0.01838903
2
Properties=species:S:1:pos:R:3:forces:R:3 energy=-0.35363874906908316 pbc="F F F"
Cd       0.00000000       0.00000000       0.00000000       0.00000000       0.00000000      -0.01592911
Cd       0.00000000       0.00000000       4.53030303       0.00000000       0.00000000       0.01592911
2
Properties=species:S:1:pos:R:3:forces:R:3 energy=-0.3544479926358648 pbc="F F F"
Cd       0.00000000       0.00000000       0.00000000       0.00000000       0.00000000      -0.01133695
Cd       0.00000000       0.00000000       4.58909091       0.00000000       0.00000000       0.01133695
2
Properties=species:S:1:pos:R:3:forces:R:3 energy=-0.35495109094734156 pbc="F F F"
Cd       0.00000000       0.00000000       0.00000000       0.00000000       0.00000000      -0.00569388
Cd       0.00000000       0.00000000       4.64787879       0.00000000       0.00000000       0.00569388
2
Properties=species:S:1:pos:R:3:forces:R:3 energy=-0.35511697814100457 pbc="F F F"
Cd       0.00000000       0.00000000       0.00000000       0.00000000       0.00000000      -0.00001826
Cd       0.00000000       0.00000000       4.70666667       0.00000000       0.00000000       0.00001826
2
Properties=species:S:1:pos:R:3:forces:R:3 energy=-0.35496903510938516 pbc="F F F"
Cd       0.00000000       0.00000000       0.00000000       0.00000000       0.00000000       0.00486165
Cd       0.00000000       0.00000000       4.76545455       0.00000000       0.00000000      -0.00486165
2
Properties=species:S:1:pos:R:3:forces:R:3 energy=-0.35457170133768245 pbc="F F F"
Cd       0.00000000       0.00000000       0.00000000       0.00000000       0.00000000       0.00840793
Cd       0.00000000       0.00000000       4.82424242       0.00000000       0.00000000      -0.00840793
2
Properties=species:S:1:pos:R:3:forces:R:3 energy=-0.35401086022389894 pbc="F F F"
Cd       0.00000000       0.00000000       0.00000000       0.00000000       0.00000000       0.01041422
Cd       0.00000000       0.00000000       4.88303030       0.00000000       0.00000000      -0.01041422
2
Properties=species:S:1:pos:R:3:forces:R:3 energy=-0.35337548976774 pbc="F F F"
Cd       0.00000000       0.00000000       0.00000000       0.00000000       0.00000000       0.01098580
Cd       0.00000000       0.00000000       4.94181818       0.00000000       0.00000000      -0.01098580
2
Properties=species:S:1:pos:R:3:forces:R:3 energy=-0.352740862564319 pbc="F F F"
Cd       0.00000000       0.00000000       0.00000000       0.00000000       0.00000000       0.01045658
Cd       0.00000000       0.00000000       5.00060606       0.00000000       0.00000000      -0.01045658
2
Properties=species:S:1:pos:R:3:forces:R:3 energy=-0.3521587994448011 pbc="F F F"
Cd       0.00000000       0.00000000       0.00000000       0.00000000       0.00000000       0.00927858
Cd       0.00000000       0.00000000       5.05939394       0.00000000       0.00000000      -0.00927858
2
Properties=species:S:1:pos:R:3:forces:R:3 energy=-0.35165363478351547 pbc="F F F"
Cd       0.00000000       0.00000000       0.00000000       0.00000000       0.00000000       0.00790811
Cd       0.00000000       0.00000000       5.11818182       0.00000000       0.00000000      -0.00790811
2
Properties=species:S:1:pos:R:3:forces:R:3 energy=-0.3512253780040036 pbc="F F F"
Cd       0.00000000       0.00000000       0.00000000       0.00000000       0.00000000       0.00671521
Cd       0.00000000       0.00000000       5.17696970       0.00000000       0.00000000      -0.00671521
2
Properties=species:S:1:pos:R:3:forces:R:3 energy=-0.35085594155645133 pbc="F F F"
Cd       0.00000000       0.00000000       0.00000000       0.00000000       0.00000000       0.00593232
Cd       0.00000000       0.00000000       5.23575758       0.00000000       0.00000000      -0.00593232
2
Properties=species:S:1:pos:R:3:forces:R:3 energy=-0.35051810003736195 pbc="F F F"
Cd       0.00000000       0.00000000       0.00000000       0.00000000       0.00000000       0.00564224
Cd       0.00000000       0.00000000       5.29454545       0.00000000       0.00000000      -0.00564224
2
Properties=species:S:1:pos:R:3:forces:R:3 energy=-0.3501837202582973 pbc="F F F"
Cd       0.00000000       0.00000000       0.00000000       0.00000000       0.00000000       0.00580041
Cd       0.00000000       0.00000000       5.35333333       0.00000000       0.00000000      -0.00580041
2
Properties=species:S:1:pos:R:3:forces:R:3 energy=-0.34982980478167847 pbc="F F F"
Cd       0.00000000       0.00000000       0.00000000       0.00000000       0.00000000       0.00627864
Cd       0.00000000       0.00000000       5.41212121       0.00000000       0.00000000      -0.00627864
2
Properties=species:S:1:pos:R:3:forces:R:3 energy=-0.34944238076988365 pbc="F F F"
Cd       0.00000000       0.00000000       0.00000000       0.00000000       0.00000000       0.00691744
Cd       0.00000000       0.00000000       5.47090909       0.00000000       0.00000000      -0.00691744
2
Properties=species:S:1:pos:R:3:forces:R:3 energy=-0.3490163375944007 pbc="F F F"
Cd       0.00000000       0.00000000       0.00000000       0.00000000       0.00000000       0.00756835
Cd       0.00000000       0.00000000       5.52969697       0.00000000       0.00000000      -0.00756835
2
Properties=species:S:1:pos:R:3:forces:R:3 energy=-0.34855439038217584 pbc="F F F"
Cd       0.00000000       0.00000000       0.00000000       0.00000000       0.00000000       0.00812492
Cd       0.00000000       0.00000000       5.58848485       0.00000000       0.00000000      -0.00812492
2
Properties=species:S:1:pos:R:3:forces:R:3 energy=-0.3480639336407292 pbc="F F F"
Cd       0.00000000       0.00000000       0.00000000       0.00000000       0.00000000       0.00852889
Cd       0.00000000       0.00000000       5.64727273       0.00000000       0.00000000      -0.00852889
2
Properties=species:S:1:pos:R:3:forces:R:3 energy=-0.347554793996663 pbc="F F F"
Cd       0.00000000       0.00000000       0.00000000       0.00000000       0.00000000       0.00876781
Cd       0.00000000       0.00000000       5.70606061       0.00000000       0.00000000      -0.00876781
2
Properties=species:S:1:pos:R:3:forces:R:3 energy=-0.3470362863933778 pbc="F F F"
Cd       0.00000000       0.00000000       0.00000000       0.00000000       0.00000000       0.00885446
Cd       0.00000000       0.00000000       5.76484848       0.00000000       0.00000000      -0.00885446
2
Properties=species:S:1:pos:R:3:forces:R:3 energy=-0.3465164236835675 pbc="F F F"
Cd       0.00000000       0.00000000       0.00000000       0.00000000       0.00000000       0.00881077
Cd       0.00000000       0.00000000       5.82363636       0.00000000       0.00000000      -0.00881077
2
Properties=species:S:1:pos:R:3:forces:R:3 energy=-0.34600243435607736 pbc="F F F"
Cd       0.00000000       0.00000000       0.00000000       0.00000000       0.00000000       0.00865213
Cd       0.00000000       0.00000000       5.88242424       0.00000000       0.00000000      -0.00865213
2
Properties=species:S:1:pos:R:3:forces:R:3 energy=-0.3455013103570728 pbc="F F F"
Cd       0.00000000       0.00000000       0.00000000       0.00000000       0.00000000       0.00837799
Cd       0.00000000       0.00000000       5.94121212       0.00000000       0.00000000      -0.00837799
2
Properties=species:S:1:pos:R:3:forces:R:3 energy=-0.3450200312534185 pbc="F F F"
Cd       0.00000000       0.00000000       0.00000000       0.00000000       0.00000000       0.00797041
Cd       0.00000000       0.00000000       6.00000000       0.00000000       0.00000000      -0.00797041
