2
Properties=species:S:1:pos:R:3:forces:R:3 energy=11141.545788532409 pbc="F F F"
Ce       0.00000000       0.00000000       0.00000000       0.00000000       0.00000000 -190080.98437500
Ce       0.00000000       0.00000000       0.18000000       0.00000000       0.00000000  190080.98437500
2
Properties=species:S:1:pos:R:3:forces:R:3 energy=4432.080944782409 pbc="F F F"
Ce       0.00000000       0.00000000       0.00000000       0.00000000       0.00000000  -64409.43359375
Ce       0.00000000       0.00000000       0.23878788       0.00000000       0.00000000   64409.43359375
2
Properties=species:S:1:pos:R:3:forces:R:3 energy=1980.331188923034 pbc="F F F"
Ce       0.00000000       0.00000000       0.00000000       0.00000000       0.00000000  -25707.90234375
Ce       0.00000000       0.00000000       0.29757576       0.00000000       0.00000000   25707.90234375
2
Properties=species:S:1:pos:R:3:forces:R:3 energy=954.6898315011589 pbc="F F F"
Ce       0.00000000       0.00000000       0.00000000       0.00000000       0.00000000  -11356.16308594
Ce       0.00000000       0.00000000       0.35636364       0.00000000       0.00000000   11356.16308594
2
Properties=species:S:1:pos:R:3:forces:R:3 energy=486.61170650115895 pbc="F F F"
Ce       0.00000000       0.00000000       0.00000000       0.00000000       0.00000000   -5385.26074219
Ce       0.00000000       0.00000000       0.41515152       0.00000000       0.00000000    5385.26074219
2
Properties=species:S:1:pos:R:3:forces:R:3 energy=258.8999755457116 pbc="F F F"
Ce       0.00000000       0.00000000       0.00000000       0.00000000       0.00000000   -2700.86181641
Ce       0.00000000       0.00000000       0.47393939       0.00000000       0.00000000    2700.86181641
2
Properties=species:S:1:pos:R:3:forces:R:3 energy=142.17690731315864 pbc="F F F"
Ce       0.00000000       0.00000000       0.00000000       0.00000000       0.00000000   -1420.96252441
Ce       0.00000000       0.00000000       0.53272727       0.00000000       0.00000000    1420.96252441
2
Properties=species:S:1:pos:R:3:forces:R:3 energy=79.56797482120926 pbc="F F F"
Ce       0.00000000       0.00000000       0.00000000       0.00000000       0.00000000    -779.77172852
Ce       0.00000000       0.00000000       0.59151515       0.00000000       0.00000000     779.77172852
2
Properties=species:S:1:pos:R:3:forces:R:3 energy=44.618855259673815 pbc="F F F"
Ce       0.00000000       0.00000000       0.00000000       0.00000000       0.00000000    -443.93966675
Ce       0.00000000       0.00000000       0.65030303       0.00000000       0.00000000     443.93966675
2
Properties=species:S:1:pos:R:3:forces:R:3 energy=24.43022040149249 pbc="F F F"
Ce       0.00000000       0.00000000       0.00000000       0.00000000       0.00000000    -260.65530396
Ce       0.00000000       0.00000000       0.70909091       0.00000000       0.00000000     260.65530396
2
Properties=species:S:1:pos:R:3:forces:R:3 energy=12.438913160309555 pbc="F F F"
Ce       0.00000000       0.00000000       0.00000000       0.00000000       0.00000000    -156.75108337
Ce       0.00000000       0.00000000       0.76787879       0.00000000       0.00000000     156.75108337
2
Properties=species:S:1:pos:R:3:forces:R:3 energy=5.169100601728792 pbc="F F F"
Ce       0.00000000       0.00000000       0.00000000       0.00000000       0.00000000     -95.80367279
Ce       0.00000000       0.00000000       0.82666667       0.00000000       0.00000000      95.80367279
2
Properties=species:S:1:pos:R:3:forces:R:3 energy=0.7065562016873356 pbc="F F F"
Ce       0.00000000       0.00000000       0.00000000       0.00000000       0.00000000     -59.02389526
Ce       0.00000000       0.00000000       0.88545455       0.00000000       0.00000000      59.02389526
2
Properties=species:S:1:pos:R:3:forces:R:3 energy=-2.0451002799151077 pbc="F F F"
Ce       0.00000000       0.00000000       0.00000000       0.00000000       0.00000000     -36.38952637
Ce       0.00000000       0.00000000       0.94424242       0.00000000       0.00000000      36.38952637
2
Properties=species:S:1:pos:R:3:forces:R:3 energy=-3.7388842055445783 pbc="F F F"
Ce       0.00000000       0.00000000       0.00000000       0.00000000       0.00000000     -22.34502411
Ce       0.00000000       0.00000000       1.00303030       0.00000000       0.00000000      22.34502411
2
Properties=species:S:1:pos:R:3:forces:R:3 energy=-4.7756437207026385 pbc="F F F"
Ce       0.00000000       0.00000000       0.00000000       0.00000000       0.00000000     -13.60746193
Ce       0.00000000       0.00000000       1.06181818       0.00000000       0.00000000      13.60746193
2
Properties=species:S:1:pos:R:3:forces:R:3 energy=-5.399825815095612 pbc="F F F"
Ce       0.00000000       0.00000000       0.00000000       0.00000000       0.00000000      -7.99960375
Ce       0.00000000       0.00000000       1.12060606       0.00000000       0.00000000       7.99960375
2
Properties=species:S:1:pos:R:3:forces:R:3 energy=-5.745231222646497 pbc="F F F"
Ce       0.00000000       0.00000000       0.00000000       0.00000000       0.00000000      -3.89347029
Ce       0.00000000       0.00000000       1.17939394       0.00000000       0.00000000       3.89347029
2
Properties=species:S:1:pos:R:3:forces:R:3 energy=-5.870042171800388 pbc="F F F"
Ce       0.00000000       0.00000000       0.00000000       0.00000000       0.00000000      -0.50360209
Ce       0.00000000       0.00000000       1.23818182       0.00000000       0.00000000       0.50360209
2
Properties=species:S:1:pos:R:3:forces:R:3 energy=-5.844484370274934 pbc="F F F"
Ce       0.00000000       0.00000000       0.00000000       0.00000000       0.00000000       0.79488057
Ce       0.00000000       0.00000000       1.29696970       0.00000000       0.00000000      -0.79488057
2
Properties=species:S:1:pos:R:3:forces:R:3 energy=-5.851167360336495 pbc="F F F"
Ce       0.00000000       0.00000000       0.00000000       0.00000000       0.00000000      -1.40301049
Ce       0.00000000       0.00000000       1.35575758       0.00000000       0.00000000       1.40301049
2
Properties=species:S:1:pos:R:3:forces:R:3 energy=-5.979946321821668 pbc="F F F"
Ce       0.00000000       0.00000000       0.00000000       0.00000000       0.00000000      -2.20146537
Ce       0.00000000       0.00000000       1.41454545       0.00000000       0.00000000       2.20146537
2
Properties=species:S:1:pos:R:3:forces:R:3 energy=-6.033284768801572 pbc="F F F"
Ce       0.00000000       0.00000000       0.00000000       0.00000000       0.00000000       0.57984209
Ce       0.00000000       0.00000000       1.47333333       0.00000000       0.00000000      -0.57984209
2
Properties=species:S:1:pos:R:3:forces:R:3 energy=-5.931065453454479 pbc="F F F"
Ce       0.00000000       0.00000000       0.00000000       0.00000000       0.00000000       2.64523244
Ce       0.00000000       0.00000000       1.53212121       0.00000000       0.00000000      -2.64523244
2
Properties=species:S:1:pos:R:3:forces:R:3 energy=-5.735161789579753 pbc="F F F"
Ce       0.00000000       0.00000000       0.00000000       0.00000000       0.00000000       4.05305099
Ce       0.00000000       0.00000000       1.59090909       0.00000000       0.00000000      -4.05305099
2
Properties=species:S:1:pos:R:3:forces:R:3 energy=-5.444996774121662 pbc="F F F"
Ce       0.00000000       0.00000000       0.00000000       0.00000000       0.00000000       5.88261604
Ce       0.00000000       0.00000000       1.64969697       0.00000000       0.00000000      -5.88261604
2
Properties=species:S:1:pos:R:3:forces:R:3 energy=-5.043916363982401 pbc="F F F"
Ce       0.00000000       0.00000000       0.00000000       0.00000000       0.00000000       7.68616009
Ce       0.00000000       0.00000000       1.70848485       0.00000000       0.00000000      -7.68616009
2
Properties=species:S:1:pos:R:3:forces:R:3 energy=-4.55690488564105 pbc="F F F"
Ce       0.00000000       0.00000000       0.00000000       0.00000000       0.00000000       8.71075821
Ce       0.00000000       0.00000000       1.76727273       0.00000000       0.00000000      -8.71075821
2
Properties=species:S:1:pos:R:3:forces:R:3 energy=-4.041381596411354 pbc="F F F"
Ce       0.00000000       0.00000000       0.00000000       0.00000000       0.00000000       8.64491463
Ce       0.00000000       0.00000000       1.82606061       0.00000000       0.00000000      -8.64491463
2
Properties=species:S:1:pos:R:3:forces:R:3 energy=-3.5603576245452206 pbc="F F F"
Ce       0.00000000       0.00000000       0.00000000       0.00000000       0.00000000       7.56781864
Ce       0.00000000       0.00000000       1.88484848       0.00000000       0.00000000      -7.56781864
2
Properties=species:S:1:pos:R:3:forces:R:3 energy=-3.1673211754885253 pbc="F F F"
Ce       0.00000000       0.00000000       0.00000000       0.00000000       0.00000000       5.68746376
Ce       0.00000000       0.00000000       1.94363636       0.00000000       0.00000000      -5.68746376
2
Properties=species:S:1:pos:R:3:forces:R:3 energy=-2.9027542332726175 pbc="F F F"
Ce       0.00000000       0.00000000       0.00000000       0.00000000       0.00000000       3.24732208
Ce       0.00000000       0.00000000       2.00242424       0.00000000       0.00000000      -3.24732208
2
Properties=species:S:1:pos:R:3:forces:R:3 energy=-2.7882402964216944 pbc="F F F"
Ce       0.00000000       0.00000000       0.00000000       0.00000000       0.00000000       0.67620713
Ce       0.00000000       0.00000000       2.06121212       0.00000000       0.00000000      -0.67620713
2
Properties=species:S:1:pos:R:3:forces:R:3 energy=-2.8140227317335844 pbc="F F F"
Ce       0.00000000       0.00000000       0.00000000       0.00000000       0.00000000      -1.43397355
Ce       0.00000000       0.00000000       2.12000000       0.00000000       0.00000000       1.43397355
2
Properties=species:S:1:pos:R:3:forces:R:3 energy=-2.9408112734375154 pbc="F F F"
Ce       0.00000000       0.00000000       0.00000000       0.00000000       0.00000000      -2.74263906
Ce       0.00000000       0.00000000       2.17878788       0.00000000       0.00000000       2.74263906
2
Properties=species:S:1:pos:R:3:forces:R:3 energy=-3.1223273592872007 pbc="F F F"
Ce       0.00000000       0.00000000       0.00000000       0.00000000       0.00000000      -3.33343983
Ce       0.00000000       0.00000000       2.23757576       0.00000000       0.00000000       3.33343983
2
Properties=species:S:1:pos:R:3:forces:R:3 energy=-3.3236058607001486 pbc="F F F"
Ce       0.00000000       0.00000000       0.00000000       0.00000000       0.00000000      -3.45567465
Ce       0.00000000       0.00000000       2.29636364       0.00000000       0.00000000       3.45567465
2
Properties=species:S:1:pos:R:3:forces:R:3 energy=-3.5235018077787803 pbc="F F F"
Ce       0.00000000       0.00000000       0.00000000       0.00000000       0.00000000      -3.31353188
Ce       0.00000000       0.00000000       2.35515152       0.00000000       0.00000000       3.31353188
2
Properties=species:S:1:pos:R:3:forces:R:3 energy=-3.7105898297523723 pbc="F F F"
Ce       0.00000000       0.00000000       0.00000000       0.00000000       0.00000000      -3.03658438
Ce       0.00000000       0.00000000       2.41393939       0.00000000       0.00000000       3.03658438
2
Properties=species:S:1:pos:R:3:forces:R:3 energy=-3.8794267084988827 pbc="F F F"
Ce       0.00000000       0.00000000       0.00000000       0.00000000       0.00000000      -2.70212770
Ce       0.00000000       0.00000000       2.47272727       0.00000000       0.00000000       2.70212770
2
Properties=species:S:1:pos:R:3:forces:R:3 energy=-4.027978602073957 pbc="F F F"
Ce       0.00000000       0.00000000       0.00000000       0.00000000       0.00000000      -2.35073757
Ce       0.00000000       0.00000000       2.53151515       0.00000000       0.00000000       2.35073757
2
Properties=species:S:1:pos:R:3:forces:R:3 energy=-4.1557847368951295 pbc="F F F"
Ce       0.00000000       0.00000000       0.00000000       0.00000000       0.00000000      -1.99723911
Ce       0.00000000       0.00000000       2.59030303       0.00000000       0.00000000       1.99723911
2
Properties=species:S:1:pos:R:3:forces:R:3 energy=-4.26278391624722 pbc="F F F"
Ce       0.00000000       0.00000000       0.00000000       0.00000000       0.00000000      -1.64255142
Ce       0.00000000       0.00000000       2.64909091       0.00000000       0.00000000       1.64255142
2
Properties=species:S:1:pos:R:3:forces:R:3 energy=-4.348856764530016 pbc="F F F"
Ce       0.00000000       0.00000000       0.00000000       0.00000000       0.00000000      -1.28544295
Ce       0.00000000       0.00000000       2.70787879       0.00000000       0.00000000       1.28544295
2
Properties=species:S:1:pos:R:3:forces:R:3 energy=-4.413965416786957 pbc="F F F"
Ce       0.00000000       0.00000000       0.00000000       0.00000000       0.00000000      -0.93091470
Ce       0.00000000       0.00000000       2.76666667       0.00000000       0.00000000       0.93091470
2
Properties=species:S:1:pos:R:3:forces:R:3 energy=-4.458617985023714 pbc="F F F"
Ce       0.00000000       0.00000000       0.00000000       0.00000000       0.00000000      -0.59230822
Ce       0.00000000       0.00000000       2.82545455       0.00000000       0.00000000       0.59230822
2
Properties=species:S:1:pos:R:3:forces:R:3 energy=-4.484264306123012 pbc="F F F"
Ce       0.00000000       0.00000000       0.00000000       0.00000000       0.00000000      -0.28716683
Ce       0.00000000       0.00000000       2.88424242       0.00000000       0.00000000       0.28716683
2
Properties=species:S:1:pos:R:3:forces:R:3 energy=-4.493333158901629 pbc="F F F"
Ce       0.00000000       0.00000000       0.00000000       0.00000000       0.00000000      -0.03021859
Ce       0.00000000       0.00000000       2.94303030       0.00000000       0.00000000       0.03021859
2
Properties=species:S:1:pos:R:3:forces:R:3 energy=-4.488899886436383 pbc="F F F"
Ce       0.00000000       0.00000000       0.00000000       0.00000000       0.00000000       0.17182586
Ce       0.00000000       0.00000000       3.00181818       0.00000000       0.00000000      -0.17182586
2
Properties=species:S:1:pos:R:3:forces:R:3 energy=-4.474170469346327 pbc="F F F"
Ce       0.00000000       0.00000000       0.00000000       0.00000000       0.00000000       0.32099006
Ce       0.00000000       0.00000000       3.06060606       0.00000000       0.00000000      -0.32099006
2
Properties=species:S:1:pos:R:3:forces:R:3 energy=-4.452047607146609 pbc="F F F"
Ce       0.00000000       0.00000000       0.00000000       0.00000000       0.00000000       0.42483935
Ce       0.00000000       0.00000000       3.11939394       0.00000000       0.00000000      -0.42483935
2
Properties=species:S:1:pos:R:3:forces:R:3 energy=-4.4249313860611394 pbc="F F F"
Ce       0.00000000       0.00000000       0.00000000       0.00000000       0.00000000       0.49227142
Ce       0.00000000       0.00000000       3.17818182       0.00000000       0.00000000      -0.49227142
2
Properties=species:S:1:pos:R:3:forces:R:3 energy=-4.394728828437052 pbc="F F F"
Ce       0.00000000       0.00000000       0.00000000       0.00000000       0.00000000       0.53106886
Ce       0.00000000       0.00000000       3.23696970       0.00000000       0.00000000      -0.53106886
2
Properties=species:S:1:pos:R:3:forces:R:3 energy=-4.3629158704878845 pbc="F F F"
Ce       0.00000000       0.00000000       0.00000000       0.00000000       0.00000000       0.54821855
Ce       0.00000000       0.00000000       3.29575758       0.00000000       0.00000000      -0.54821855
2
Properties=species:S:1:pos:R:3:forces:R:3 energy=-4.33054023598782 pbc="F F F"
Ce       0.00000000       0.00000000       0.00000000       0.00000000       0.00000000       0.55173689
Ce       0.00000000       0.00000000       3.35454545       0.00000000       0.00000000      -0.55173689
2
Properties=species:S:1:pos:R:3:forces:R:3 energy=-4.298115085746297 pbc="F F F"
Ce       0.00000000       0.00000000       0.00000000       0.00000000       0.00000000       0.55172390
Ce       0.00000000       0.00000000       3.41333333       0.00000000       0.00000000      -0.55172390
2
Properties=species:S:1:pos:R:3:forces:R:3 energy=-4.265520808160352 pbc="F F F"
Ce       0.00000000       0.00000000       0.00000000       0.00000000       0.00000000       0.55928487
Ce       0.00000000       0.00000000       3.47212121       0.00000000       0.00000000      -0.55928487
2
Properties=species:S:1:pos:R:3:forces:R:3 energy=-4.232026454711984 pbc="F F F"
Ce       0.00000000       0.00000000       0.00000000       0.00000000       0.00000000       0.58353770
Ce       0.00000000       0.00000000       3.53090909       0.00000000       0.00000000      -0.58353770
2
Properties=species:S:1:pos:R:3:forces:R:3 energy=-4.196506246212732 pbc="F F F"
Ce       0.00000000       0.00000000       0.00000000       0.00000000       0.00000000       0.62817204
Ce       0.00000000       0.00000000       3.58969697       0.00000000       0.00000000      -0.62817204
2
Properties=species:S:1:pos:R:3:forces:R:3 energy=-4.157840580182439 pbc="F F F"
Ce       0.00000000       0.00000000       0.00000000       0.00000000       0.00000000       0.68927485
Ce       0.00000000       0.00000000       3.64848485       0.00000000       0.00000000      -0.68927485
2
Properties=species:S:1:pos:R:3:forces:R:3 energy=-4.1153556905482205 pbc="F F F"
Ce       0.00000000       0.00000000       0.00000000       0.00000000       0.00000000       0.75582397
Ce       0.00000000       0.00000000       3.70727273       0.00000000       0.00000000      -0.75582397
2
Properties=species:S:1:pos:R:3:forces:R:3 energy=-4.069153116778212 pbc="F F F"
Ce       0.00000000       0.00000000       0.00000000       0.00000000       0.00000000       0.81327540
Ce       0.00000000       0.00000000       3.76606061       0.00000000       0.00000000      -0.81327540
2
Properties=species:S:1:pos:R:3:forces:R:3 energy=-4.020165048670135 pbc="F F F"
Ce       0.00000000       0.00000000       0.00000000       0.00000000       0.00000000       0.84896690
Ce       0.00000000       0.00000000       3.82484848       0.00000000       0.00000000      -0.84896690
2
Properties=species:S:1:pos:R:3:forces:R:3 energy=-3.9698863375327513 pbc="F F F"
Ce       0.00000000       0.00000000       0.00000000       0.00000000       0.00000000       0.85684484
Ce       0.00000000       0.00000000       3.88363636       0.00000000       0.00000000      -0.85684484
2
Properties=species:S:1:pos:R:3:forces:R:3 energy=-3.9199248229065575 pbc="F F F"
Ce       0.00000000       0.00000000       0.00000000       0.00000000       0.00000000       0.83922464
Ce       0.00000000       0.00000000       3.94242424       0.00000000       0.00000000      -0.83922464
2
Properties=species:S:1:pos:R:3:forces:R:3 energy=-3.87154146113857 pbc="F F F"
Ce       0.00000000       0.00000000       0.00000000       0.00000000       0.00000000       0.80502957
Ce       0.00000000       0.00000000       4.00121212       0.00000000       0.00000000      -0.80502957
2
Properties=species:S:1:pos:R:3:forces:R:3 energy=-3.8253682508606697 pbc="F F F"
Ce       0.00000000       0.00000000       0.00000000       0.00000000       0.00000000       0.76594073
Ce       0.00000000       0.00000000       4.06000000       0.00000000       0.00000000      -0.76594073
2
Properties=species:S:1:pos:R:3:forces:R:3 energy=-3.7813717707861074 pbc="F F F"
Ce       0.00000000       0.00000000       0.00000000       0.00000000       0.00000000       0.73252255
Ce       0.00000000       0.00000000       4.11878788       0.00000000       0.00000000      -0.73252255
2
Properties=species:S:1:pos:R:3:forces:R:3 energy=-3.7389905198984468 pbc="F F F"
Ce       0.00000000       0.00000000       0.00000000       0.00000000       0.00000000       0.71175718
Ce       0.00000000       0.00000000       4.17757576       0.00000000       0.00000000      -0.71175718
2
Properties=species:S:1:pos:R:3:forces:R:3 energy=-3.6973819143477793 pbc="F F F"
Ce       0.00000000       0.00000000       0.00000000       0.00000000       0.00000000       0.70635903
Ce       0.00000000       0.00000000       4.23636364       0.00000000       0.00000000      -0.70635903
2
Properties=species:S:1:pos:R:3:forces:R:3 energy=-3.655654761404459 pbc="F F F"
Ce       0.00000000       0.00000000       0.00000000       0.00000000       0.00000000       0.71536714
Ce       0.00000000       0.00000000       4.29515152       0.00000000       0.00000000      -0.71536714
2
Properties=species:S:1:pos:R:3:forces:R:3 energy=-3.6130568948808564 pbc="F F F"
Ce       0.00000000       0.00000000       0.00000000       0.00000000       0.00000000       0.73535115
Ce       0.00000000       0.00000000       4.35393939       0.00000000       0.00000000      -0.73535115
2
Properties=species:S:1:pos:R:3:forces:R:3 energy=-3.5690717425754466 pbc="F F F"
Ce       0.00000000       0.00000000       0.00000000       0.00000000       0.00000000       0.76170903
Ce       0.00000000       0.00000000       4.41272727       0.00000000       0.00000000      -0.76170903
2
Properties=species:S:1:pos:R:3:forces:R:3 energy=-3.523463884812266 pbc="F F F"
Ce       0.00000000       0.00000000       0.00000000       0.00000000       0.00000000       0.78980935
Ce       0.00000000       0.00000000       4.47151515       0.00000000       0.00000000      -0.78980935
2
Properties=species:S:1:pos:R:3:forces:R:3 energy=-3.476249484201458 pbc="F F F"
Ce       0.00000000       0.00000000       0.00000000       0.00000000       0.00000000       0.81584412
Ce       0.00000000       0.00000000       4.53030303       0.00000000       0.00000000      -0.81584412
2
Properties=species:S:1:pos:R:3:forces:R:3 energy=-3.4276312005349987 pbc="F F F"
Ce       0.00000000       0.00000000       0.00000000       0.00000000       0.00000000       0.83732051
Ce       0.00000000       0.00000000       4.58909091       0.00000000       0.00000000      -0.83732051
2
Properties=species:S:1:pos:R:3:forces:R:3 energy=-3.377913345450759 pbc="F F F"
Ce       0.00000000       0.00000000       0.00000000       0.00000000       0.00000000       0.85316968
Ce       0.00000000       0.00000000       4.64787879       0.00000000       0.00000000      -0.85316968
2
Properties=species:S:1:pos:R:3:forces:R:3 energy=-3.327427960001697 pbc="F F F"
Ce       0.00000000       0.00000000       0.00000000       0.00000000       0.00000000       0.86344892
Ce       0.00000000       0.00000000       4.70666667       0.00000000       0.00000000      -0.86344892
2
Properties=species:S:1:pos:R:3:forces:R:3 energy=-3.2764892925463567 pbc="F F F"
Ce       0.00000000       0.00000000       0.00000000       0.00000000       0.00000000       0.86881584
Ce       0.00000000       0.00000000       4.76545455       0.00000000       0.00000000      -0.86881584
2
Properties=species:S:1:pos:R:3:forces:R:3 energy=-3.22535708545551 pbc="F F F"
Ce       0.00000000       0.00000000       0.00000000       0.00000000       0.00000000       0.86993206
Ce       0.00000000       0.00000000       4.82424242       0.00000000       0.00000000      -0.86993206
2
Properties=species:S:1:pos:R:3:forces:R:3 energy=-3.174289047790405 pbc="F F F"
Ce       0.00000000       0.00000000       0.00000000       0.00000000       0.00000000       0.86690986
Ce       0.00000000       0.00000000       4.88303030       0.00000000       0.00000000      -0.86690986
2
Properties=species:S:1:pos:R:3:forces:R:3 energy=-3.123525092750053 pbc="F F F"
Ce       0.00000000       0.00000000       0.00000000       0.00000000       0.00000000       0.85908467
Ce       0.00000000       0.00000000       4.94181818       0.00000000       0.00000000      -0.85908467
2
Properties=species:S:1:pos:R:3:forces:R:3 energy=-3.07340014450519 pbc="F F F"
Ce       0.00000000       0.00000000       0.00000000       0.00000000       0.00000000       0.84506178
Ce       0.00000000       0.00000000       5.00060606       0.00000000       0.00000000      -0.84506178
2
Properties=species:S:1:pos:R:3:forces:R:3 energy=-3.024320285252989 pbc="F F F"
Ce       0.00000000       0.00000000       0.00000000       0.00000000       0.00000000       0.82307500
Ce       0.00000000       0.00000000       5.05939394       0.00000000       0.00000000      -0.82307500
2
Properties=species:S:1:pos:R:3:forces:R:3 energy=-2.9768137767929868 pbc="F F F"
Ce       0.00000000       0.00000000       0.00000000       0.00000000       0.00000000       0.79154551
Ce       0.00000000       0.00000000       5.11818182       0.00000000       0.00000000      -0.79154551
2
Properties=species:S:1:pos:R:3:forces:R:3 energy=-2.9314626248914157 pbc="F F F"
Ce       0.00000000       0.00000000       0.00000000       0.00000000       0.00000000       0.74955714
Ce       0.00000000       0.00000000       5.17696970       0.00000000       0.00000000      -0.74955714
2
Properties=species:S:1:pos:R:3:forces:R:3 energy=-2.888889003677394 pbc="F F F"
Ce       0.00000000       0.00000000       0.00000000       0.00000000       0.00000000       0.69723189
Ce       0.00000000       0.00000000       5.23575758       0.00000000       0.00000000      -0.69723189
2
Properties=species:S:1:pos:R:3:forces:R:3 energy=-2.849665820165365 pbc="F F F"
Ce       0.00000000       0.00000000       0.00000000       0.00000000       0.00000000       0.63576168
Ce       0.00000000       0.00000000       5.29454545       0.00000000       0.00000000      -0.63576168
2
Properties=species:S:1:pos:R:3:forces:R:3 energy=-2.8142764310186927 pbc="F F F"
Ce       0.00000000       0.00000000       0.00000000       0.00000000       0.00000000       0.56719726
Ce       0.00000000       0.00000000       5.35333333       0.00000000       0.00000000      -0.56719726
2
Properties=species:S:1:pos:R:3:forces:R:3 energy=-2.7830650372300116 pbc="F F F"
Ce       0.00000000       0.00000000       0.00000000       0.00000000       0.00000000       0.49421397
Ce       0.00000000       0.00000000       5.41212121       0.00000000       0.00000000      -0.49421397
2
Properties=species:S:1:pos:R:3:forces:R:3 energy=-2.7561999407335556 pbc="F F F"
Ce       0.00000000       0.00000000       0.00000000       0.00000000       0.00000000       0.41961855
Ce       0.00000000       0.00000000       5.47090909       0.00000000       0.00000000      -0.41961855
2
Properties=species:S:1:pos:R:3:forces:R:3 energy=-2.73370263305572 pbc="F F F"
Ce       0.00000000       0.00000000       0.00000000       0.00000000       0.00000000       0.34609711
Ce       0.00000000       0.00000000       5.52969697       0.00000000       0.00000000      -0.34609711
2
Properties=species:S:1:pos:R:3:forces:R:3 energy=-2.7154403948356416 pbc="F F F"
Ce       0.00000000       0.00000000       0.00000000       0.00000000       0.00000000       0.27597144
Ce       0.00000000       0.00000000       5.58848485       0.00000000       0.00000000      -0.27597144
2
Properties=species:S:1:pos:R:3:forces:R:3 energy=-2.701158927492316 pbc="F F F"
Ce       0.00000000       0.00000000       0.00000000       0.00000000       0.00000000       0.21120928
Ce       0.00000000       0.00000000       5.64727273       0.00000000       0.00000000      -0.21120928
2
Properties=species:S:1:pos:R:3:forces:R:3 energy=-2.690477809016393 pbc="F F F"
Ce       0.00000000       0.00000000       0.00000000       0.00000000       0.00000000       0.15329707
Ce       0.00000000       0.00000000       5.70606061       0.00000000       0.00000000      -0.15329707
2
Properties=species:S:1:pos:R:3:forces:R:3 energy=-2.6829570175054815 pbc="F F F"
Ce       0.00000000       0.00000000       0.00000000       0.00000000       0.00000000       0.10355727
Ce       0.00000000       0.00000000       5.76484848       0.00000000       0.00000000      -0.10355727
2
Properties=species:S:1:pos:R:3:forces:R:3 energy=-2.678110009339955 pbc="F F F"
Ce       0.00000000       0.00000000       0.00000000       0.00000000       0.00000000       0.06305818
Ce       0.00000000       0.00000000       5.82363636       0.00000000       0.00000000      -0.06305818
2
Properties=species:S:1:pos:R:3:forces:R:3 energy=-2.675352206514664 pbc="F F F"
Ce       0.00000000       0.00000000       0.00000000       0.00000000       0.00000000       0.03285993
Ce       0.00000000       0.00000000       5.88242424       0.00000000       0.00000000      -0.03285993
2
Properties=species:S:1:pos:R:3:forces:R:3 energy=-2.6740288963644305 pbc="F F F"
Ce       0.00000000       0.00000000       0.00000000       0.00000000       0.00000000       0.01394665
Ce       0.00000000       0.00000000       5.94121212       0.00000000       0.00000000      -0.01394665
2
Properties=species:S:1:pos:R:3:forces:R:3 energy=-2.6734674135546412 pbc="F F F"
Ce       0.00000000       0.00000000       0.00000000       0.00000000       0.00000000       0.00735437
Ce       0.00000000       0.00000000       6.00000000       0.00000000       0.00000000      -0.00735437
