2
Properties=species:S:1:pos:R:3:forces:R:3 energy=1921.318242624705 pbc="F F F"
Cl       0.00000000       0.00000000       0.00000000       0.00000000       0.00000000  -28144.30664062
Cl       0.00000000       0.00000000       0.18000000       0.00000000       0.00000000   28144.30664062
2
Properties=species:S:1:pos:R:3:forces:R:3 energy=879.452519968455 pbc="F F F"
Cl       0.00000000       0.00000000       0.00000000       0.00000000       0.00000000  -10655.74707031
Cl       0.00000000       0.00000000       0.23878788       0.00000000       0.00000000   10655.74707031
2
Properties=species:S:1:pos:R:3:forces:R:3 energy=455.5463004923688 pbc="F F F"
Cl       0.00000000       0.00000000       0.00000000       0.00000000       0.00000000   -4712.41259766
Cl       0.00000000       0.00000000       0.29757576       0.00000000       0.00000000    4712.41259766
2
Properties=species:S:1:pos:R:3:forces:R:3 energy=259.1452690045638 pbc="F F F"
Cl       0.00000000       0.00000000       0.00000000       0.00000000       0.00000000   -2297.00878906
Cl       0.00000000       0.00000000       0.35636364       0.00000000       0.00000000    2297.00878906
2
Properties=species:S:1:pos:R:3:forces:R:3 energy=160.86766587415667 pbc="F F F"
Cl       0.00000000       0.00000000       0.00000000       0.00000000       0.00000000   -1178.07885742
Cl       0.00000000       0.00000000       0.41515152       0.00000000       0.00000000    1178.07885742
2
Properties=species:S:1:pos:R:3:forces:R:3 energy=110.04926838703005 pbc="F F F"
Cl       0.00000000       0.00000000       0.00000000       0.00000000       0.00000000    -612.78179932
Cl       0.00000000       0.00000000       0.47393939       0.00000000       0.00000000     612.78179932
2
Properties=species:S:1:pos:R:3:forces:R:3 energy=83.94077846331994 pbc="F F F"
Cl       0.00000000       0.00000000       0.00000000       0.00000000       0.00000000    -300.19995117
Cl       0.00000000       0.00000000       0.53272727       0.00000000       0.00000000     300.19995117
2
Properties=species:S:1:pos:R:3:forces:R:3 energy=72.3746317267756 pbc="F F F"
Cl       0.00000000       0.00000000       0.00000000       0.00000000       0.00000000    -110.90326691
Cl       0.00000000       0.00000000       0.59151515       0.00000000       0.00000000     110.90326691
2
Properties=species:S:1:pos:R:3:forces:R:3 energy=69.12589076694259 pbc="F F F"
Cl       0.00000000       0.00000000       0.00000000       0.00000000       0.00000000     -14.04607010
Cl       0.00000000       0.00000000       0.65030303       0.00000000       0.00000000      14.04607010
2
Properties=species:S:1:pos:R:3:forces:R:3 energy=68.8933318606163 pbc="F F F"
Cl       0.00000000       0.00000000       0.00000000       0.00000000       0.00000000      -9.72598362
Cl       0.00000000       0.00000000       0.70909091       0.00000000       0.00000000       9.72598362
2
Properties=species:S:1:pos:R:3:forces:R:3 energy=66.44341166248581 pbc="F F F"
Cl       0.00000000       0.00000000       0.00000000       0.00000000       0.00000000     -81.87951660
Cl       0.00000000       0.00000000       0.76787879       0.00000000       0.00000000      81.87951660
2
Properties=species:S:1:pos:R:3:forces:R:3 energy=59.12443879280435 pbc="F F F"
Cl       0.00000000       0.00000000       0.00000000       0.00000000       0.00000000    -161.15744019
Cl       0.00000000       0.00000000       0.82666667       0.00000000       0.00000000     161.15744019
2
Properties=species:S:1:pos:R:3:forces:R:3 energy=48.66961340084181 pbc="F F F"
Cl       0.00000000       0.00000000       0.00000000       0.00000000       0.00000000    -183.96737671
Cl       0.00000000       0.00000000       0.88545455       0.00000000       0.00000000     183.96737671
2
Properties=species:S:1:pos:R:3:forces:R:3 energy=38.36878009140451 pbc="F F F"
Cl       0.00000000       0.00000000       0.00000000       0.00000000       0.00000000    -162.69786072
Cl       0.00000000       0.00000000       0.94424242       0.00000000       0.00000000     162.69786072
2
Properties=species:S:1:pos:R:3:forces:R:3 energy=29.635993855475142 pbc="F F F"
Cl       0.00000000       0.00000000       0.00000000       0.00000000       0.00000000    -135.72332764
Cl       0.00000000       0.00000000       1.00303030       0.00000000       0.00000000     135.72332764
2
Properties=species:S:1:pos:R:3:forces:R:3 energy=22.276871211222073 pbc="F F F"
Cl       0.00000000       0.00000000       0.00000000       0.00000000       0.00000000    -114.07633209
Cl       0.00000000       0.00000000       1.06181818       0.00000000       0.00000000     114.07633209
2
Properties=species:S:1:pos:R:3:forces:R:3 energy=16.3819866005697 pbc="F F F"
Cl       0.00000000       0.00000000       0.00000000       0.00000000       0.00000000     -85.90756226
Cl       0.00000000       0.00000000       1.12060606       0.00000000       0.00000000      85.90756226
2
Properties=species:S:1:pos:R:3:forces:R:3 energy=12.074314618842783 pbc="F F F"
Cl       0.00000000       0.00000000       0.00000000       0.00000000       0.00000000     -62.42333221
Cl       0.00000000       0.00000000       1.17939394       0.00000000       0.00000000      62.42333221
2
Properties=species:S:1:pos:R:3:forces:R:3 energy=8.83464755555688 pbc="F F F"
Cl       0.00000000       0.00000000       0.00000000       0.00000000       0.00000000     -49.18985748
Cl       0.00000000       0.00000000       1.23818182       0.00000000       0.00000000      49.18985748
2
Properties=species:S:1:pos:R:3:forces:R:3 energy=6.185434709219214 pbc="F F F"
Cl       0.00000000       0.00000000       0.00000000       0.00000000       0.00000000     -41.39070129
Cl       0.00000000       0.00000000       1.29696970       0.00000000       0.00000000      41.39070129
2
Properties=species:S:1:pos:R:3:forces:R:3 energy=3.948808532550275 pbc="F F F"
Cl       0.00000000       0.00000000       0.00000000       0.00000000       0.00000000     -34.69285202
Cl       0.00000000       0.00000000       1.35575758       0.00000000       0.00000000      34.69285202
2
Properties=species:S:1:pos:R:3:forces:R:3 energy=2.1097199418030295 pbc="F F F"
Cl       0.00000000       0.00000000       0.00000000       0.00000000       0.00000000     -27.89408302
Cl       0.00000000       0.00000000       1.41454545       0.00000000       0.00000000      27.89408302
2
Properties=species:S:1:pos:R:3:forces:R:3 energy=0.6565711669034242 pbc="F F F"
Cl       0.00000000       0.00000000       0.00000000       0.00000000       0.00000000     -21.72520638
Cl       0.00000000       0.00000000       1.47333333       0.00000000       0.00000000      21.72520638
2
Properties=species:S:1:pos:R:3:forces:R:3 energy=-0.4699782517951895 pbc="F F F"
Cl       0.00000000       0.00000000       0.00000000       0.00000000       0.00000000     -16.81921959
Cl       0.00000000       0.00000000       1.53212121       0.00000000       0.00000000      16.81921959
2
Properties=species:S:1:pos:R:3:forces:R:3 energy=-1.3434935721346668 pbc="F F F"
Cl       0.00000000       0.00000000       0.00000000       0.00000000       0.00000000     -13.05593586
Cl       0.00000000       0.00000000       1.59090909       0.00000000       0.00000000      13.05593586
2
Properties=species:S:1:pos:R:3:forces:R:3 energy=-2.0198606485779473 pbc="F F F"
Cl       0.00000000       0.00000000       0.00000000       0.00000000       0.00000000     -10.05544472
Cl       0.00000000       0.00000000       1.64969697       0.00000000       0.00000000      10.05544472
2
Properties=species:S:1:pos:R:3:forces:R:3 energy=-2.535869706842258 pbc="F F F"
Cl       0.00000000       0.00000000       0.00000000       0.00000000       0.00000000      -7.57454491
Cl       0.00000000       0.00000000       1.70848485       0.00000000       0.00000000       7.57454491
2
Properties=species:S:1:pos:R:3:forces:R:3 energy=-2.9182001702273115 pbc="F F F"
Cl       0.00000000       0.00000000       0.00000000       0.00000000       0.00000000      -5.48898745
Cl       0.00000000       0.00000000       1.76727273       0.00000000       0.00000000       5.48898745
2
Properties=species:S:1:pos:R:3:forces:R:3 energy=-3.1866888571481202 pbc="F F F"
Cl       0.00000000       0.00000000       0.00000000       0.00000000       0.00000000      -3.68230343
Cl       0.00000000       0.00000000       1.82606061       0.00000000       0.00000000       3.68230343
2
Properties=species:S:1:pos:R:3:forces:R:3 energy=-3.3548268739642424 pbc="F F F"
Cl       0.00000000       0.00000000       0.00000000       0.00000000       0.00000000      -2.06583261
Cl       0.00000000       0.00000000       1.88484848       0.00000000       0.00000000       2.06583261
2
Properties=species:S:1:pos:R:3:forces:R:3 energy=-3.4328389164738145 pbc="F F F"
Cl       0.00000000       0.00000000       0.00000000       0.00000000       0.00000000      -0.61656129
Cl       0.00000000       0.00000000       1.94363636       0.00000000       0.00000000       0.61656129
2
Properties=species:S:1:pos:R:3:forces:R:3 energy=-3.4307507253384033 pbc="F F F"
Cl       0.00000000       0.00000000       0.00000000       0.00000000       0.00000000       0.65796685
Cl       0.00000000       0.00000000       2.00242424       0.00000000       0.00000000      -0.65796685
2
Properties=species:S:1:pos:R:3:forces:R:3 energy=-3.3589771023268047 pbc="F F F"
Cl       0.00000000       0.00000000       0.00000000       0.00000000       0.00000000       1.75372517
Cl       0.00000000       0.00000000       2.06121212       0.00000000       0.00000000      -1.75372517
2
Properties=species:S:1:pos:R:3:forces:R:3 energy=-3.2282622613207574 pbc="F F F"
Cl       0.00000000       0.00000000       0.00000000       0.00000000       0.00000000       2.65907097
Cl       0.00000000       0.00000000       2.12000000       0.00000000       0.00000000      -2.65907097
2
Properties=species:S:1:pos:R:3:forces:R:3 energy=-3.0508629626747523 pbc="F F F"
Cl       0.00000000       0.00000000       0.00000000       0.00000000       0.00000000       3.33263564
Cl       0.00000000       0.00000000       2.17878788       0.00000000       0.00000000      -3.33263564
2
Properties=species:S:1:pos:R:3:forces:R:3 energy=-2.8421483684060704 pbc="F F F"
Cl       0.00000000       0.00000000       0.00000000       0.00000000       0.00000000       3.71503639
Cl       0.00000000       0.00000000       2.23757576       0.00000000       0.00000000      -3.71503639
2
Properties=species:S:1:pos:R:3:forces:R:3 energy=-2.6204782158045887 pbc="F F F"
Cl       0.00000000       0.00000000       0.00000000       0.00000000       0.00000000       3.77264237
Cl       0.00000000       0.00000000       2.29636364       0.00000000       0.00000000      -3.77264237
2
Properties=species:S:1:pos:R:3:forces:R:3 energy=-2.4043154844126464 pbc="F F F"
Cl       0.00000000       0.00000000       0.00000000       0.00000000       0.00000000       3.53989959
Cl       0.00000000       0.00000000       2.35515152       0.00000000       0.00000000      -3.53989959
2
Properties=species:S:1:pos:R:3:forces:R:3 energy=-2.2079400718040656 pbc="F F F"
Cl       0.00000000       0.00000000       0.00000000       0.00000000       0.00000000       3.12075257
Cl       0.00000000       0.00000000       2.41393939       0.00000000       0.00000000      -3.12075257
2
Properties=species:S:1:pos:R:3:forces:R:3 energy=-2.038488421955587 pbc="F F F"
Cl       0.00000000       0.00000000       0.00000000       0.00000000       0.00000000       2.64451885
Cl       0.00000000       0.00000000       2.47272727       0.00000000       0.00000000      -2.64451885
2
Properties=species:S:1:pos:R:3:forces:R:3 energy=-1.896123259436341 pbc="F F F"
Cl       0.00000000       0.00000000       0.00000000       0.00000000       0.00000000       2.21155620
Cl       0.00000000       0.00000000       2.53151515       0.00000000       0.00000000      -2.21155620
2
Properties=species:S:1:pos:R:3:forces:R:3 energy=-1.7766972844239763 pbc="F F F"
Cl       0.00000000       0.00000000       0.00000000       0.00000000       0.00000000       1.86713183
Cl       0.00000000       0.00000000       2.59030303       0.00000000       0.00000000      -1.86713183
2
Properties=species:S:1:pos:R:3:forces:R:3 energy=-1.6748466921802463 pbc="F F F"
Cl       0.00000000       0.00000000       0.00000000       0.00000000       0.00000000       1.61116648
Cl       0.00000000       0.00000000       2.64909091       0.00000000       0.00000000      -1.61116648
2
Properties=species:S:1:pos:R:3:forces:R:3 energy=-1.5859221463061401 pbc="F F F"
Cl       0.00000000       0.00000000       0.00000000       0.00000000       0.00000000       1.42362595
Cl       0.00000000       0.00000000       2.70787879       0.00000000       0.00000000      -1.42362595
2
Properties=species:S:1:pos:R:3:forces:R:3 energy=-1.50652948909244 pbc="F F F"
Cl       0.00000000       0.00000000       0.00000000       0.00000000       0.00000000       1.28398502
Cl       0.00000000       0.00000000       2.76666667       0.00000000       0.00000000      -1.28398502
2
Properties=species:S:1:pos:R:3:forces:R:3 energy=-1.4343047899919694 pbc="F F F"
Cl       0.00000000       0.00000000       0.00000000       0.00000000       0.00000000       1.17778361
Cl       0.00000000       0.00000000       2.82545455       0.00000000       0.00000000      -1.17778361
2
Properties=species:S:1:pos:R:3:forces:R:3 energy=-1.3675952758666616 pbc="F F F"
Cl       0.00000000       0.00000000       0.00000000       0.00000000       0.00000000       1.09482455
Cl       0.00000000       0.00000000       2.88424242       0.00000000       0.00000000      -1.09482455
2
Properties=species:S:1:pos:R:3:forces:R:3 energy=-1.3052956949175696 pbc="F F F"
Cl       0.00000000       0.00000000       0.00000000       0.00000000       0.00000000       1.02637434
Cl       0.00000000       0.00000000       2.94303030       0.00000000       0.00000000      -1.02637434
2
Properties=species:S:1:pos:R:3:forces:R:3 energy=-1.24679089089325 pbc="F F F"
Cl       0.00000000       0.00000000       0.00000000       0.00000000       0.00000000       0.96454054
Cl       0.00000000       0.00000000       3.00181818       0.00000000       0.00000000      -0.96454054
2
Properties=species:S:1:pos:R:3:forces:R:3 energy=-1.1918838448685354 pbc="F F F"
Cl       0.00000000       0.00000000       0.00000000       0.00000000       0.00000000       0.90309107
Cl       0.00000000       0.00000000       3.06060606       0.00000000       0.00000000      -0.90309107
2
Properties=species:S:1:pos:R:3:forces:R:3 energy=-1.1406766551124692 pbc="F F F"
Cl       0.00000000       0.00000000       0.00000000       0.00000000       0.00000000       0.83827692
Cl       0.00000000       0.00000000       3.11939394       0.00000000       0.00000000      -0.83827692
2
Properties=species:S:1:pos:R:3:forces:R:3 energy=-1.0934113383378947 pbc="F F F"
Cl       0.00000000       0.00000000       0.00000000       0.00000000       0.00000000       0.76900053
Cl       0.00000000       0.00000000       3.17818182       0.00000000       0.00000000      -0.76900053
2
Properties=species:S:1:pos:R:3:forces:R:3 energy=-1.0503276054355 pbc="F F F"
Cl       0.00000000       0.00000000       0.00000000       0.00000000       0.00000000       0.69637263
Cl       0.00000000       0.00000000       3.23696970       0.00000000       0.00000000      -0.69637263
2
Properties=species:S:1:pos:R:3:forces:R:3 energy=-1.0115511286914172 pbc="F F F"
Cl       0.00000000       0.00000000       0.00000000       0.00000000       0.00000000       0.62293154
Cl       0.00000000       0.00000000       3.29575758       0.00000000       0.00000000      -0.62293154
2
Properties=species:S:1:pos:R:3:forces:R:3 energy=-0.9770405712650149 pbc="F F F"
Cl       0.00000000       0.00000000       0.00000000       0.00000000       0.00000000       0.55177796
Cl       0.00000000       0.00000000       3.35454545       0.00000000       0.00000000      -0.55177796
2
Properties=species:S:1:pos:R:3:forces:R:3 energy=-0.9465734107869083 pbc="F F F"
Cl       0.00000000       0.00000000       0.00000000       0.00000000       0.00000000       0.48580548
Cl       0.00000000       0.00000000       3.41333333       0.00000000       0.00000000      -0.48580548
2
Properties=species:S:1:pos:R:3:forces:R:3 energy=-0.9197774680481579 pbc="F F F"
Cl       0.00000000       0.00000000       0.00000000       0.00000000       0.00000000       0.42716783
Cl       0.00000000       0.00000000       3.47212121       0.00000000       0.00000000      -0.42716783
2
Properties=species:S:1:pos:R:3:forces:R:3 energy=-0.8961817866081772 pbc="F F F"
Cl       0.00000000       0.00000000       0.00000000       0.00000000       0.00000000       0.37703344
Cl       0.00000000       0.00000000       3.53090909       0.00000000       0.00000000      -0.37703344
2
Properties=species:S:1:pos:R:3:forces:R:3 energy=-0.8752764045820882 pbc="F F F"
Cl       0.00000000       0.00000000       0.00000000       0.00000000       0.00000000       0.33559489
Cl       0.00000000       0.00000000       3.58969697       0.00000000       0.00000000      -0.33559489
2
Properties=species:S:1:pos:R:3:forces:R:3 energy=-0.8565646952703733 pbc="F F F"
Cl       0.00000000       0.00000000       0.00000000       0.00000000       0.00000000       0.30224842
Cl       0.00000000       0.00000000       3.64848485       0.00000000       0.00000000      -0.30224842
2
Properties=species:S:1:pos:R:3:forces:R:3 energy=-0.839603269008741 pbc="F F F"
Cl       0.00000000       0.00000000       0.00000000       0.00000000       0.00000000       0.27583349
Cl       0.00000000       0.00000000       3.70727273       0.00000000       0.00000000      -0.27583349
2
Properties=species:S:1:pos:R:3:forces:R:3 energy=-0.8240262520974021 pbc="F F F"
Cl       0.00000000       0.00000000       0.00000000       0.00000000       0.00000000       0.25488594
Cl       0.00000000       0.00000000       3.76606061       0.00000000       0.00000000      -0.25488594
2
Properties=species:S:1:pos:R:3:forces:R:3 energy=-0.809557999429451 pbc="F F F"
Cl       0.00000000       0.00000000       0.00000000       0.00000000       0.00000000       0.23786189
Cl       0.00000000       0.00000000       3.82484848       0.00000000       0.00000000      -0.23786189
2
Properties=species:S:1:pos:R:3:forces:R:3 energy=-0.7960108140912135 pbc="F F F"
Cl       0.00000000       0.00000000       0.00000000       0.00000000       0.00000000       0.22332890
Cl       0.00000000       0.00000000       3.88363636       0.00000000       0.00000000      -0.22332890
2
Properties=species:S:1:pos:R:3:forces:R:3 energy=-0.7832739024959655 pbc="F F F"
Cl       0.00000000       0.00000000       0.00000000       0.00000000       0.00000000       0.21013939
Cl       0.00000000       0.00000000       3.94242424       0.00000000       0.00000000      -0.21013939
2
Properties=species:S:1:pos:R:3:forces:R:3 energy=-0.7712921688016158 pbc="F F F"
Cl       0.00000000       0.00000000       0.00000000       0.00000000       0.00000000       0.19755743
Cl       0.00000000       0.00000000       4.00121212       0.00000000       0.00000000      -0.19755743
2
Properties=species:S:1:pos:R:3:forces:R:3 energy=-0.7600393429273591 pbc="F F F"
Cl       0.00000000       0.00000000       0.00000000       0.00000000       0.00000000       0.18533099
Cl       0.00000000       0.00000000       4.06000000       0.00000000       0.00000000      -0.18533099
2
Properties=species:S:1:pos:R:3:forces:R:3 energy=-0.7494906665792134 pbc="F F F"
Cl       0.00000000       0.00000000       0.00000000       0.00000000       0.00000000       0.17367753
Cl       0.00000000       0.00000000       4.11878788       0.00000000       0.00000000      -0.17367753
2
Properties=species:S:1:pos:R:3:forces:R:3 energy=-0.739596800670808 pbc="F F F"
Cl       0.00000000       0.00000000       0.00000000       0.00000000       0.00000000       0.16315642
Cl       0.00000000       0.00000000       4.17757576       0.00000000       0.00000000      -0.16315642
2
Properties=species:S:1:pos:R:3:forces:R:3 energy=-0.7302715515182933 pbc="F F F"
Cl       0.00000000       0.00000000       0.00000000       0.00000000       0.00000000       0.15445812
Cl       0.00000000       0.00000000       4.23636364       0.00000000       0.00000000      -0.15445812
2
Properties=species:S:1:pos:R:3:forces:R:3 energy=-0.7213890628784119 pbc="F F F"
Cl       0.00000000       0.00000000       0.00000000       0.00000000       0.00000000       0.14815837
Cl       0.00000000       0.00000000       4.29515152       0.00000000       0.00000000      -0.14815837
2
Properties=species:S:1:pos:R:3:forces:R:3 energy=-0.7127992883975399 pbc="F F F"
Cl       0.00000000       0.00000000       0.00000000       0.00000000       0.00000000       0.14452603
Cl       0.00000000       0.00000000       4.35393939       0.00000000       0.00000000      -0.14452603
2
Properties=species:S:1:pos:R:3:forces:R:3 energy=-0.7043461383501861 pbc="F F F"
Cl       0.00000000       0.00000000       0.00000000       0.00000000       0.00000000       0.14344527
Cl       0.00000000       0.00000000       4.41272727       0.00000000       0.00000000      -0.14344527
2
Properties=species:S:1:pos:R:3:forces:R:3 energy=-0.6958920698067933 pbc="F F F"
Cl       0.00000000       0.00000000       0.00000000       0.00000000       0.00000000       0.14446905
Cl       0.00000000       0.00000000       4.47151515       0.00000000       0.00000000      -0.14446905
2
Properties=species:S:1:pos:R:3:forces:R:3 energy=-0.6873312051992766 pbc="F F F"
Cl       0.00000000       0.00000000       0.00000000       0.00000000       0.00000000       0.14695901
Cl       0.00000000       0.00000000       4.53030303       0.00000000       0.00000000      -0.14695901
2
Properties=species:S:1:pos:R:3:forces:R:3 energy=-0.6785978801278695 pbc="F F F"
Cl       0.00000000       0.00000000       0.00000000       0.00000000       0.00000000       0.15023188
Cl       0.00000000       0.00000000       4.58909091       0.00000000       0.00000000      -0.15023188
2
Properties=species:S:1:pos:R:3:forces:R:3 energy=-0.6696646453136001 pbc="F F F"
Cl       0.00000000       0.00000000       0.00000000       0.00000000       0.00000000       0.15367229
Cl       0.00000000       0.00000000       4.64787879       0.00000000       0.00000000      -0.15367229
2
Properties=species:S:1:pos:R:3:forces:R:3 energy=-0.660536220582635 pbc="F F F"
Cl       0.00000000       0.00000000       0.00000000       0.00000000       0.00000000       0.15678740
Cl       0.00000000       0.00000000       4.70666667       0.00000000       0.00000000      -0.15678740
2
Properties=species:S:1:pos:R:3:forces:R:3 energy=-0.6512433494402207 pbc="F F F"
Cl       0.00000000       0.00000000       0.00000000       0.00000000       0.00000000       0.15923886
Cl       0.00000000       0.00000000       4.76545455       0.00000000       0.00000000      -0.15923886
2
Properties=species:S:1:pos:R:3:forces:R:3 energy=-0.641829526241832 pbc="F F F"
Cl       0.00000000       0.00000000       0.00000000       0.00000000       0.00000000       0.16086510
Cl       0.00000000       0.00000000       4.82424242       0.00000000       0.00000000      -0.16086510
2
Properties=species:S:1:pos:R:3:forces:R:3 energy=-0.6323460870215214 pbc="F F F"
Cl       0.00000000       0.00000000       0.00000000       0.00000000       0.00000000       0.16167139
Cl       0.00000000       0.00000000       4.88303030       0.00000000       0.00000000      -0.16167139
2
Properties=species:S:1:pos:R:3:forces:R:3 energy=-0.622834564141199 pbc="F F F"
Cl       0.00000000       0.00000000       0.00000000       0.00000000       0.00000000       0.16179772
Cl       0.00000000       0.00000000       4.94181818       0.00000000       0.00000000      -0.16179772
2
Properties=species:S:1:pos:R:3:forces:R:3 energy=-0.6133319738689934 pbc="F F F"
Cl       0.00000000       0.00000000       0.00000000       0.00000000       0.00000000       0.16142400
Cl       0.00000000       0.00000000       5.00060606       0.00000000       0.00000000      -0.16142400
2
Properties=species:S:1:pos:R:3:forces:R:3 energy=-0.6038624212318282 pbc="F F F"
Cl       0.00000000       0.00000000       0.00000000       0.00000000       0.00000000       0.16064768
Cl       0.00000000       0.00000000       5.05939394       0.00000000       0.00000000      -0.16064768
2
Properties=species:S:1:pos:R:3:forces:R:3 energy=-0.5944531328729097 pbc="F F F"
Cl       0.00000000       0.00000000       0.00000000       0.00000000       0.00000000       0.15937836
Cl       0.00000000       0.00000000       5.11818182       0.00000000       0.00000000      -0.15937836
2
Properties=species:S:1:pos:R:3:forces:R:3 energy=-0.5851397796841127 pbc="F F F"
Cl       0.00000000       0.00000000       0.00000000       0.00000000       0.00000000       0.15729380
Cl       0.00000000       0.00000000       5.17696970       0.00000000       0.00000000      -0.15729380
2
Properties=species:S:1:pos:R:3:forces:R:3 energy=-0.5759858570270424 pbc="F F F"
Cl       0.00000000       0.00000000       0.00000000       0.00000000       0.00000000       0.15386966
Cl       0.00000000       0.00000000       5.23575758       0.00000000       0.00000000      -0.15386966
2
Properties=species:S:1:pos:R:3:forces:R:3 energy=-0.567086729335358 pbc="F F F"
Cl       0.00000000       0.00000000       0.00000000       0.00000000       0.00000000       0.14850834
Cl       0.00000000       0.00000000       5.29454545       0.00000000       0.00000000      -0.14850834
2
Properties=species:S:1:pos:R:3:forces:R:3 energy=-0.5585723887574866 pbc="F F F"
Cl       0.00000000       0.00000000       0.00000000       0.00000000       0.00000000       0.14071000
Cl       0.00000000       0.00000000       5.35333333       0.00000000       0.00000000      -0.14071000
2
Properties=species:S:1:pos:R:3:forces:R:3 energy=-0.5505966613702199 pbc="F F F"
Cl       0.00000000       0.00000000       0.00000000       0.00000000       0.00000000       0.13019671
Cl       0.00000000       0.00000000       5.41212121       0.00000000       0.00000000      -0.13019671
2
Properties=species:S:1:pos:R:3:forces:R:3 energy=-0.5433165190212766 pbc="F F F"
Cl       0.00000000       0.00000000       0.00000000       0.00000000       0.00000000       0.11704183
Cl       0.00000000       0.00000000       5.47090909       0.00000000       0.00000000      -0.11704183
2
Properties=species:S:1:pos:R:3:forces:R:3 energy=-0.5368784383791712 pbc="F F F"
Cl       0.00000000       0.00000000       0.00000000       0.00000000       0.00000000       0.10165276
Cl       0.00000000       0.00000000       5.52969697       0.00000000       0.00000000      -0.10165276
2
Properties=species:S:1:pos:R:3:forces:R:3 energy=-0.5313944968968033 pbc="F F F"
Cl       0.00000000       0.00000000       0.00000000       0.00000000       0.00000000       0.08473969
Cl       0.00000000       0.00000000       5.58848485       0.00000000       0.00000000      -0.08473969
2
Properties=species:S:1:pos:R:3:forces:R:3 energy=-0.5269297887078328 pbc="F F F"
Cl       0.00000000       0.00000000       0.00000000       0.00000000       0.00000000       0.06721905
Cl       0.00000000       0.00000000       5.64727273       0.00000000       0.00000000      -0.06721905
2
Properties=species:S:1:pos:R:3:forces:R:3 energy=-0.5234850818529275 pbc="F F F"
Cl       0.00000000       0.00000000       0.00000000       0.00000000       0.00000000       0.05008007
Cl       0.00000000       0.00000000       5.70606061       0.00000000       0.00000000      -0.05008007
2
Properties=species:S:1:pos:R:3:forces:R:3 energy=-0.5210088586159972 pbc="F F F"
Cl       0.00000000       0.00000000       0.00000000       0.00000000       0.00000000       0.03431590
Cl       0.00000000       0.00000000       5.76484848       0.00000000       0.00000000      -0.03431590
2
Properties=species:S:1:pos:R:3:forces:R:3 energy=-0.5194014832955828 pbc="F F F"
Cl       0.00000000       0.00000000       0.00000000       0.00000000       0.00000000       0.02084658
Cl       0.00000000       0.00000000       5.82363636       0.00000000       0.00000000      -0.02084658
2
Properties=species:S:1:pos:R:3:forces:R:3 energy=-0.5185010687764456 pbc="F F F"
Cl       0.00000000       0.00000000       0.00000000       0.00000000       0.00000000       0.01046283
Cl       0.00000000       0.00000000       5.88242424       0.00000000       0.00000000      -0.01046283
2
Properties=species:S:1:pos:R:3:forces:R:3 energy=-0.5180995774062281 pbc="F F F"
Cl       0.00000000       0.00000000       0.00000000       0.00000000       0.00000000       0.00380936
Cl       0.00000000       0.00000000       5.94121212       0.00000000       0.00000000      -0.00380936
2
Properties=species:S:1:pos:R:3:forces:R:3 energy=-0.5179685592136144 pbc="F F F"
Cl       0.00000000       0.00000000       0.00000000       0.00000000       0.00000000       0.00142215
Cl       0.00000000       0.00000000       6.00000000       0.00000000       0.00000000      -0.00142215
