2
Properties=species:S:1:pos:R:3:forces:R:3 energy=5116.4579742480855 pbc="F F F"
Cr       0.00000000       0.00000000       0.00000000       0.00000000       0.00000000  -48808.96484375
Cr       0.00000000       0.00000000       0.18000000       0.00000000       0.00000000   48808.96484375
2
Properties=species:S:1:pos:R:3:forces:R:3 energy=3332.9645660449605 pbc="F F F"
Cr       0.00000000       0.00000000       0.00000000       0.00000000       0.00000000  -17942.00585938
Cr       0.00000000       0.00000000       0.23878788       0.00000000       0.00000000   17942.00585938
2
Properties=species:S:1:pos:R:3:forces:R:3 energy=2626.7343414387533 pbc="F F F"
Cr       0.00000000       0.00000000       0.00000000       0.00000000       0.00000000   -7749.29687500
Cr       0.00000000       0.00000000       0.29757576       0.00000000       0.00000000    7749.29687500
2
Properties=species:S:1:pos:R:3:forces:R:3 energy=2306.165249645046 pbc="F F F"
Cr       0.00000000       0.00000000       0.00000000       0.00000000       0.00000000   -3726.70141602
Cr       0.00000000       0.00000000       0.35636364       0.00000000       0.00000000    3726.70141602
2
Properties=species:S:1:pos:R:3:forces:R:3 energy=2145.3881500420066 pbc="F F F"
Cr       0.00000000       0.00000000       0.00000000       0.00000000       0.00000000   -1979.75744629
Cr       0.00000000       0.00000000       0.41515152       0.00000000       0.00000000    1979.75744629
2
Properties=species:S:1:pos:R:3:forces:R:3 energy=2053.4291656860137 pbc="F F F"
Cr       0.00000000       0.00000000       0.00000000       0.00000000       0.00000000   -1276.48022461
Cr       0.00000000       0.00000000       0.47393939       0.00000000       0.00000000    1276.48022461
2
Properties=species:S:1:pos:R:3:forces:R:3 energy=1982.445889353672 pbc="F F F"
Cr       0.00000000       0.00000000       0.00000000       0.00000000       0.00000000   -1239.67883301
Cr       0.00000000       0.00000000       0.53272727       0.00000000       0.00000000    1239.67883301
2
Properties=species:S:1:pos:R:3:forces:R:3 energy=1895.5506257388179 pbc="F F F"
Cr       0.00000000       0.00000000       0.00000000       0.00000000       0.00000000   -1824.37841797
Cr       0.00000000       0.00000000       0.59151515       0.00000000       0.00000000    1824.37841797
2
Properties=species:S:1:pos:R:3:forces:R:3 energy=1754.9563875526026 pbc="F F F"
Cr       0.00000000       0.00000000       0.00000000       0.00000000       0.00000000   -3068.14526367
Cr       0.00000000       0.00000000       0.65030303       0.00000000       0.00000000    3068.14526367
2
Properties=species:S:1:pos:R:3:forces:R:3 energy=1537.4167148530955 pbc="F F F"
Cr       0.00000000       0.00000000       0.00000000       0.00000000       0.00000000   -4119.24365234
Cr       0.00000000       0.00000000       0.70909091       0.00000000       0.00000000    4119.24365234
2
Properties=species:S:1:pos:R:3:forces:R:3 energy=1243.8664221124288 pbc="F F F"
Cr       0.00000000       0.00000000       0.00000000       0.00000000       0.00000000   -5768.10791016
Cr       0.00000000       0.00000000       0.76787879       0.00000000       0.00000000    5768.10791016
2
Properties=species:S:1:pos:R:3:forces:R:3 energy=877.4594400263429 pbc="F F F"
Cr       0.00000000       0.00000000       0.00000000       0.00000000       0.00000000   -6471.83105469
Cr       0.00000000       0.00000000       0.82666667       0.00000000       0.00000000    6471.83105469
2
Properties=species:S:1:pos:R:3:forces:R:3 energy=513.2304976399259 pbc="F F F"
Cr       0.00000000       0.00000000       0.00000000       0.00000000       0.00000000   -5669.15869141
Cr       0.00000000       0.00000000       0.88545455       0.00000000       0.00000000    5669.15869141
2
Properties=species:S:1:pos:R:3:forces:R:3 energy=228.72201443428898 pbc="F F F"
Cr       0.00000000       0.00000000       0.00000000       0.00000000       0.00000000   -3894.79272461
Cr       0.00000000       0.00000000       0.94424242       0.00000000       0.00000000    3894.79272461
2
Properties=species:S:1:pos:R:3:forces:R:3 energy=76.54568479605462 pbc="F F F"
Cr       0.00000000       0.00000000       0.00000000       0.00000000       0.00000000    -678.54968262
Cr       0.00000000       0.00000000       1.00303030       0.00000000       0.00000000     678.54968262
2
Properties=species:S:1:pos:R:3:forces:R:3 energy=43.75280122701985 pbc="F F F"
Cr       0.00000000       0.00000000       0.00000000       0.00000000       0.00000000    -440.29357910
Cr       0.00000000       0.00000000       1.06181818       0.00000000       0.00000000     440.29357910
2
Properties=species:S:1:pos:R:3:forces:R:3 energy=23.40959458664166 pbc="F F F"
Cr       0.00000000       0.00000000       0.00000000       0.00000000       0.00000000    -264.26580811
Cr       0.00000000       0.00000000       1.12060606       0.00000000       0.00000000     264.26580811
2
Properties=species:S:1:pos:R:3:forces:R:3 energy=11.08369669778694 pbc="F F F"
Cr       0.00000000       0.00000000       0.00000000       0.00000000       0.00000000    -167.09663391
Cr       0.00000000       0.00000000       1.17939394       0.00000000       0.00000000     167.09663391
2
Properties=species:S:1:pos:R:3:forces:R:3 energy=2.9157355481915235 pbc="F F F"
Cr       0.00000000       0.00000000       0.00000000       0.00000000       0.00000000    -114.40174866
Cr       0.00000000       0.00000000       1.23818182       0.00000000       0.00000000     114.40174866
2
Properties=species:S:1:pos:R:3:forces:R:3 energy=-2.649233714825847 pbc="F F F"
Cr       0.00000000       0.00000000       0.00000000       0.00000000       0.00000000     -76.96650696
Cr       0.00000000       0.00000000       1.29696970       0.00000000       0.00000000      76.96650696
2
Properties=species:S:1:pos:R:3:forces:R:3 energy=-6.358704174590812 pbc="F F F"
Cr       0.00000000       0.00000000       0.00000000       0.00000000       0.00000000     -50.82104111
Cr       0.00000000       0.00000000       1.35575758       0.00000000       0.00000000      50.82104111
2
Properties=species:S:1:pos:R:3:forces:R:3 energy=-8.765322758001915 pbc="F F F"
Cr       0.00000000       0.00000000       0.00000000       0.00000000       0.00000000     -32.07046509
Cr       0.00000000       0.00000000       1.41454545       0.00000000       0.00000000      32.07046509
2
Properties=species:S:1:pos:R:3:forces:R:3 energy=-10.256117447955987 pbc="F F F"
Cr       0.00000000       0.00000000       0.00000000       0.00000000       0.00000000     -19.68833733
Cr       0.00000000       0.00000000       1.47333333       0.00000000       0.00000000      19.68833733
2
Properties=species:S:1:pos:R:3:forces:R:3 energy=-11.171170661786096 pbc="F F F"
Cr       0.00000000       0.00000000       0.00000000       0.00000000       0.00000000     -11.93495369
Cr       0.00000000       0.00000000       1.53212121       0.00000000       0.00000000      11.93495369
2
Properties=species:S:1:pos:R:3:forces:R:3 energy=-11.699358272762469 pbc="F F F"
Cr       0.00000000       0.00000000       0.00000000       0.00000000       0.00000000      -6.30478621
Cr       0.00000000       0.00000000       1.59090909       0.00000000       0.00000000       6.30478621
2
Properties=species:S:1:pos:R:3:forces:R:3 energy=-11.942922541596438 pbc="F F F"
Cr       0.00000000       0.00000000       0.00000000       0.00000000       0.00000000      -2.23780251
Cr       0.00000000       0.00000000       1.64969697       0.00000000       0.00000000       2.23780251
2
Properties=species:S:1:pos:R:3:forces:R:3 energy=-11.991909270530197 pbc="F F F"
Cr       0.00000000       0.00000000       0.00000000       0.00000000       0.00000000       0.33304515
Cr       0.00000000       0.00000000       1.70848485       0.00000000       0.00000000      -0.33304515
2
Properties=species:S:1:pos:R:3:forces:R:3 energy=-11.929210063181317 pbc="F F F"
Cr       0.00000000       0.00000000       0.00000000       0.00000000       0.00000000       1.61039162
Cr       0.00000000       0.00000000       1.76727273       0.00000000       0.00000000      -1.61039162
2
Properties=species:S:1:pos:R:3:forces:R:3 energy=-11.82116993782873 pbc="F F F"
Cr       0.00000000       0.00000000       0.00000000       0.00000000       0.00000000       1.93996203
Cr       0.00000000       0.00000000       1.82606061       0.00000000       0.00000000      -1.93996203
2
Properties=species:S:1:pos:R:3:forces:R:3 energy=-11.711930584366357 pbc="F F F"
Cr       0.00000000       0.00000000       0.00000000       0.00000000       0.00000000       1.71648979
Cr       0.00000000       0.00000000       1.88484848       0.00000000       0.00000000      -1.71648979
2
Properties=species:S:1:pos:R:3:forces:R:3 energy=-11.623135650269107 pbc="F F F"
Cr       0.00000000       0.00000000       0.00000000       0.00000000       0.00000000       1.29534233
Cr       0.00000000       0.00000000       1.94363636       0.00000000       0.00000000      -1.29534233
2
Properties=species:S:1:pos:R:3:forces:R:3 energy=-11.55896756650346 pbc="F F F"
Cr       0.00000000       0.00000000       0.00000000       0.00000000       0.00000000       0.90229720
Cr       0.00000000       0.00000000       2.00242424       0.00000000       0.00000000      -0.90229720
2
Properties=species:S:1:pos:R:3:forces:R:3 energy=-11.51506951573036 pbc="F F F"
Cr       0.00000000       0.00000000       0.00000000       0.00000000       0.00000000       0.60744512
Cr       0.00000000       0.00000000       2.06121212       0.00000000       0.00000000      -0.60744512
2
Properties=species:S:1:pos:R:3:forces:R:3 energy=-11.48585390694997 pbc="F F F"
Cr       0.00000000       0.00000000       0.00000000       0.00000000       0.00000000       0.39961407
Cr       0.00000000       0.00000000       2.12000000       0.00000000       0.00000000      -0.39961407
2
Properties=species:S:1:pos:R:3:forces:R:3 energy=-11.466453440138473 pbc="F F F"
Cr       0.00000000       0.00000000       0.00000000       0.00000000       0.00000000       0.27632257
Cr       0.00000000       0.00000000       2.17878788       0.00000000       0.00000000      -0.27632257
2
Properties=species:S:1:pos:R:3:forces:R:3 energy=-11.451150171959288 pbc="F F F"
Cr       0.00000000       0.00000000       0.00000000       0.00000000       0.00000000       0.26555717
Cr       0.00000000       0.00000000       2.23757576       0.00000000       0.00000000      -0.26555717
2
Properties=species:S:1:pos:R:3:forces:R:3 energy=-11.432754845615555 pbc="F F F"
Cr       0.00000000       0.00000000       0.00000000       0.00000000       0.00000000       0.37837714
Cr       0.00000000       0.00000000       2.29636364       0.00000000       0.00000000      -0.37837714
2
Properties=species:S:1:pos:R:3:forces:R:3 energy=-11.405410429422863 pbc="F F F"
Cr       0.00000000       0.00000000       0.00000000       0.00000000       0.00000000       0.55238909
Cr       0.00000000       0.00000000       2.35515152       0.00000000       0.00000000      -0.55238909
2
Properties=species:S:1:pos:R:3:forces:R:3 energy=-11.369195676426857 pbc="F F F"
Cr       0.00000000       0.00000000       0.00000000       0.00000000       0.00000000       0.65582484
Cr       0.00000000       0.00000000       2.41393939       0.00000000       0.00000000      -0.65582484
2
Properties=species:S:1:pos:R:3:forces:R:3 energy=-11.332156583498335 pbc="F F F"
Cr       0.00000000       0.00000000       0.00000000       0.00000000       0.00000000       0.56602824
Cr       0.00000000       0.00000000       2.47272727       0.00000000       0.00000000      -0.56602824
2
Properties=species:S:1:pos:R:3:forces:R:3 energy=-11.307063330309337 pbc="F F F"
Cr       0.00000000       0.00000000       0.00000000       0.00000000       0.00000000       0.25473183
Cr       0.00000000       0.00000000       2.53151515       0.00000000       0.00000000      -0.25473183
2
Properties=species:S:1:pos:R:3:forces:R:3 energy=-11.304937375954971 pbc="F F F"
Cr       0.00000000       0.00000000       0.00000000       0.00000000       0.00000000      -0.19365677
Cr       0.00000000       0.00000000       2.59030303       0.00000000       0.00000000       0.19365677
2
Properties=species:S:1:pos:R:3:forces:R:3 energy=-11.32958408524092 pbc="F F F"
Cr       0.00000000       0.00000000       0.00000000       0.00000000       0.00000000      -0.62988669
Cr       0.00000000       0.00000000       2.64909091       0.00000000       0.00000000       0.62988669
2
Properties=species:S:1:pos:R:3:forces:R:3 energy=-11.376171202102487 pbc="F F F"
Cr       0.00000000       0.00000000       0.00000000       0.00000000       0.00000000      -0.92602533
Cr       0.00000000       0.00000000       2.70787879       0.00000000       0.00000000       0.92602533
2
Properties=species:S:1:pos:R:3:forces:R:3 energy=-11.435145391108012 pbc="F F F"
Cr       0.00000000       0.00000000       0.00000000       0.00000000       0.00000000      -1.05508375
Cr       0.00000000       0.00000000       2.76666667       0.00000000       0.00000000       1.05508375
2
Properties=species:S:1:pos:R:3:forces:R:3 energy=-11.497663177501137 pbc="F F F"
Cr       0.00000000       0.00000000       0.00000000       0.00000000       0.00000000      -1.05290830
Cr       0.00000000       0.00000000       2.82545455       0.00000000       0.00000000       1.05290830
2
Properties=species:S:1:pos:R:3:forces:R:3 energy=-11.556994153971603 pbc="F F F"
Cr       0.00000000       0.00000000       0.00000000       0.00000000       0.00000000      -0.95147413
Cr       0.00000000       0.00000000       2.88424242       0.00000000       0.00000000       0.95147413
2
Properties=species:S:1:pos:R:3:forces:R:3 energy=-11.608243715490213 pbc="F F F"
Cr       0.00000000       0.00000000       0.00000000       0.00000000       0.00000000      -0.78450847
Cr       0.00000000       0.00000000       2.94303030       0.00000000       0.00000000       0.78450847
2
Properties=species:S:1:pos:R:3:forces:R:3 energy=-11.648772708283737 pbc="F F F"
Cr       0.00000000       0.00000000       0.00000000       0.00000000       0.00000000      -0.59391028
Cr       0.00000000       0.00000000       3.00181818       0.00000000       0.00000000       0.59391028
2
Properties=species:S:1:pos:R:3:forces:R:3 energy=-11.678355343995452 pbc="F F F"
Cr       0.00000000       0.00000000       0.00000000       0.00000000       0.00000000      -0.41715747
Cr       0.00000000       0.00000000       3.06060606       0.00000000       0.00000000       0.41715747
2
Properties=species:S:1:pos:R:3:forces:R:3 energy=-11.698516433437646 pbc="F F F"
Cr       0.00000000       0.00000000       0.00000000       0.00000000       0.00000000      -0.27524585
Cr       0.00000000       0.00000000       3.11939394       0.00000000       0.00000000       0.27524585
2
Properties=species:S:1:pos:R:3:forces:R:3 energy=-11.711443903626298 pbc="F F F"
Cr       0.00000000       0.00000000       0.00000000       0.00000000       0.00000000      -0.16996934
Cr       0.00000000       0.00000000       3.17818182       0.00000000       0.00000000       0.16996934
2
Properties=species:S:1:pos:R:3:forces:R:3 energy=-11.718994647154473 pbc="F F F"
Cr       0.00000000       0.00000000       0.00000000       0.00000000       0.00000000      -0.08976071
Cr       0.00000000       0.00000000       3.23696970       0.00000000       0.00000000       0.08976071
2
Properties=species:S:1:pos:R:3:forces:R:3 energy=-11.722181086327236 pbc="F F F"
Cr       0.00000000       0.00000000       0.00000000       0.00000000       0.00000000      -0.01903426
Cr       0.00000000       0.00000000       3.29575758       0.00000000       0.00000000       0.01903426
2
Properties=species:S:1:pos:R:3:forces:R:3 energy=-11.721178903606797 pbc="F F F"
Cr       0.00000000       0.00000000       0.00000000       0.00000000       0.00000000       0.05418548
Cr       0.00000000       0.00000000       3.35454545       0.00000000       0.00000000      -0.05418548
2
Properties=species:S:1:pos:R:3:forces:R:3 energy=-11.715658460780551 pbc="F F F"
Cr       0.00000000       0.00000000       0.00000000       0.00000000       0.00000000       0.13494408
Cr       0.00000000       0.00000000       3.41333333       0.00000000       0.00000000      -0.13494408
2
Properties=species:S:1:pos:R:3:forces:R:3 energy=-11.705187712024646 pbc="F F F"
Cr       0.00000000       0.00000000       0.00000000       0.00000000       0.00000000       0.22196317
Cr       0.00000000       0.00000000       3.47212121       0.00000000       0.00000000      -0.22196317
2
Properties=species:S:1:pos:R:3:forces:R:3 energy=-11.689536343647532 pbc="F F F"
Cr       0.00000000       0.00000000       0.00000000       0.00000000       0.00000000       0.31020582
Cr       0.00000000       0.00000000       3.53090909       0.00000000       0.00000000      -0.31020582
2
Properties=species:S:1:pos:R:3:forces:R:3 energy=-11.668812523320229 pbc="F F F"
Cr       0.00000000       0.00000000       0.00000000       0.00000000       0.00000000       0.39346471
Cr       0.00000000       0.00000000       3.58969697       0.00000000       0.00000000      -0.39346471
2
Properties=species:S:1:pos:R:3:forces:R:3 energy=-11.643484726879642 pbc="F F F"
Cr       0.00000000       0.00000000       0.00000000       0.00000000       0.00000000       0.46598974
Cr       0.00000000       0.00000000       3.64848485       0.00000000       0.00000000      -0.46598974
2
Properties=species:S:1:pos:R:3:forces:R:3 energy=-11.614324777630994 pbc="F F F"
Cr       0.00000000       0.00000000       0.00000000       0.00000000       0.00000000       0.52319235
Cr       0.00000000       0.00000000       3.70727273       0.00000000       0.00000000      -0.52319235
2
Properties=species:S:1:pos:R:3:forces:R:3 energy=-11.582334343733386 pbc="F F F"
Cr       0.00000000       0.00000000       0.00000000       0.00000000       0.00000000       0.56187946
Cr       0.00000000       0.00000000       3.76606061       0.00000000       0.00000000      -0.56187946
2
Properties=species:S:1:pos:R:3:forces:R:3 energy=-11.548658305892456 pbc="F F F"
Cr       0.00000000       0.00000000       0.00000000       0.00000000       0.00000000       0.58039296
Cr       0.00000000       0.00000000       3.82484848       0.00000000       0.00000000      -0.58039296
2
Properties=species:S:1:pos:R:3:forces:R:3 energy=-11.514490324596125 pbc="F F F"
Cr       0.00000000       0.00000000       0.00000000       0.00000000       0.00000000       0.57870936
Cr       0.00000000       0.00000000       3.88363636       0.00000000       0.00000000      -0.57870936
2
Properties=species:S:1:pos:R:3:forces:R:3 energy=-11.480981281044576 pbc="F F F"
Cr       0.00000000       0.00000000       0.00000000       0.00000000       0.00000000       0.55840474
Cr       0.00000000       0.00000000       3.94242424       0.00000000       0.00000000      -0.55840474
2
Properties=species:S:1:pos:R:3:forces:R:3 energy=-11.449144812707782 pbc="F F F"
Cr       0.00000000       0.00000000       0.00000000       0.00000000       0.00000000       0.52238172
Cr       0.00000000       0.00000000       4.00121212       0.00000000       0.00000000      -0.52238172
2
Properties=species:S:1:pos:R:3:forces:R:3 energy=-11.419797181158415 pbc="F F F"
Cr       0.00000000       0.00000000       0.00000000       0.00000000       0.00000000       0.47439685
Cr       0.00000000       0.00000000       4.06000000       0.00000000       0.00000000      -0.47439685
2
Properties=species:S:1:pos:R:3:forces:R:3 energy=-11.393521840402311 pbc="F F F"
Cr       0.00000000       0.00000000       0.00000000       0.00000000       0.00000000       0.41851556
Cr       0.00000000       0.00000000       4.11878788       0.00000000       0.00000000      -0.41851556
2
Properties=species:S:1:pos:R:3:forces:R:3 energy=-11.370667447166477 pbc="F F F"
Cr       0.00000000       0.00000000       0.00000000       0.00000000       0.00000000       0.35861129
Cr       0.00000000       0.00000000       4.17757576       0.00000000       0.00000000      -0.35861129
2
Properties=species:S:1:pos:R:3:forces:R:3 energy=-11.351369548318228 pbc="F F F"
Cr       0.00000000       0.00000000       0.00000000       0.00000000       0.00000000       0.29805166
Cr       0.00000000       0.00000000       4.23636364       0.00000000       0.00000000      -0.29805166
2
Properties=species:S:1:pos:R:3:forces:R:3 energy=-11.335582917092932 pbc="F F F"
Cr       0.00000000       0.00000000       0.00000000       0.00000000       0.00000000       0.23955861
Cr       0.00000000       0.00000000       4.29515152       0.00000000       0.00000000      -0.23955861
2
Properties=species:S:1:pos:R:3:forces:R:3 energy=-11.32312136032517 pbc="F F F"
Cr       0.00000000       0.00000000       0.00000000       0.00000000       0.00000000       0.18526733
Cr       0.00000000       0.00000000       4.35393939       0.00000000       0.00000000      -0.18526733
2
Properties=species:S:1:pos:R:3:forces:R:3 energy=-11.313685115242492 pbc="F F F"
Cr       0.00000000       0.00000000       0.00000000       0.00000000       0.00000000       0.13684794
Cr       0.00000000       0.00000000       4.41272727       0.00000000       0.00000000      -0.13684794
2
Properties=species:S:1:pos:R:3:forces:R:3 energy=-11.306889396338471 pbc="F F F"
Cr       0.00000000       0.00000000       0.00000000       0.00000000       0.00000000       0.09566288
Cr       0.00000000       0.00000000       4.47151515       0.00000000       0.00000000      -0.09566288
2
Properties=species:S:1:pos:R:3:forces:R:3 energy=-11.302273612165827 pbc="F F F"
Cr       0.00000000       0.00000000       0.00000000       0.00000000       0.00000000       0.06282569
Cr       0.00000000       0.00000000       4.53030303       0.00000000       0.00000000      -0.06282569
2
Properties=species:S:1:pos:R:3:forces:R:3 energy=-11.299322260640194 pbc="F F F"
Cr       0.00000000       0.00000000       0.00000000       0.00000000       0.00000000       0.03916164
Cr       0.00000000       0.00000000       4.58909091       0.00000000       0.00000000      -0.03916164
2
Properties=species:S:1:pos:R:3:forces:R:3 energy=-11.297481052804471 pbc="F F F"
Cr       0.00000000       0.00000000       0.00000000       0.00000000       0.00000000       0.02506282
Cr       0.00000000       0.00000000       4.64787879       0.00000000       0.00000000      -0.02506282
2
Properties=species:S:1:pos:R:3:forces:R:3 energy=-11.2961919358493 pbc="F F F"
Cr       0.00000000       0.00000000       0.00000000       0.00000000       0.00000000       0.02030620
Cr       0.00000000       0.00000000       4.70666667       0.00000000       0.00000000      -0.02030620
2
Properties=species:S:1:pos:R:3:forces:R:3 energy=-11.294929402429169 pbc="F F F"
Cr       0.00000000       0.00000000       0.00000000       0.00000000       0.00000000       0.02391841
Cr       0.00000000       0.00000000       4.76545455       0.00000000       0.00000000      -0.02391841
2
Properties=species:S:1:pos:R:3:forces:R:3 energy=-11.293249029850069 pbc="F F F"
Cr       0.00000000       0.00000000       0.00000000       0.00000000       0.00000000       0.03417975
Cr       0.00000000       0.00000000       4.82424242       0.00000000       0.00000000      -0.03417975
2
Properties=species:S:1:pos:R:3:forces:R:3 energy=-11.290824673367828 pbc="F F F"
Cr       0.00000000       0.00000000       0.00000000       0.00000000       0.00000000       0.04879942
Cr       0.00000000       0.00000000       4.88303030       0.00000000       0.00000000      -0.04879942
2
Properties=species:S:1:pos:R:3:forces:R:3 energy=-11.287475118383815 pbc="F F F"
Cr       0.00000000       0.00000000       0.00000000       0.00000000       0.00000000       0.06525253
Cr       0.00000000       0.00000000       4.94181818       0.00000000       0.00000000      -0.06525253
2
Properties=species:S:1:pos:R:3:forces:R:3 energy=-11.28316418181526 pbc="F F F"
Cr       0.00000000       0.00000000       0.00000000       0.00000000       0.00000000       0.08112768
Cr       0.00000000       0.00000000       5.00060606       0.00000000       0.00000000      -0.08112768
2
Properties=species:S:1:pos:R:3:forces:R:3 energy=-11.277986470336938 pbc="F F F"
Cr       0.00000000       0.00000000       0.00000000       0.00000000       0.00000000       0.09445913
Cr       0.00000000       0.00000000       5.05939394       0.00000000       0.00000000      -0.09445913
2
Properties=species:S:1:pos:R:3:forces:R:3 energy=-11.272134939615304 pbc="F F F"
Cr       0.00000000       0.00000000       0.00000000       0.00000000       0.00000000       0.10390208
Cr       0.00000000       0.00000000       5.11818182       0.00000000       0.00000000      -0.10390208
2
Properties=species:S:1:pos:R:3:forces:R:3 energy=-11.265860000354488 pbc="F F F"
Cr       0.00000000       0.00000000       0.00000000       0.00000000       0.00000000       0.10880179
Cr       0.00000000       0.00000000       5.17696970       0.00000000       0.00000000      -0.10880179
2
Properties=species:S:1:pos:R:3:forces:R:3 energy=-11.259432461214308 pbc="F F F"
Cr       0.00000000       0.00000000       0.00000000       0.00000000       0.00000000       0.10913023
Cr       0.00000000       0.00000000       5.23575758       0.00000000       0.00000000      -0.10913023
2
Properties=species:S:1:pos:R:3:forces:R:3 energy=-11.253110115363144 pbc="F F F"
Cr       0.00000000       0.00000000       0.00000000       0.00000000       0.00000000       0.10535906
Cr       0.00000000       0.00000000       5.29454545       0.00000000       0.00000000      -0.10535906
2
Properties=species:S:1:pos:R:3:forces:R:3 energy=-11.247109323485612 pbc="F F F"
Cr       0.00000000       0.00000000       0.00000000       0.00000000       0.00000000       0.09830271
Cr       0.00000000       0.00000000       5.35333333       0.00000000       0.00000000      -0.09830271
2
Properties=species:S:1:pos:R:3:forces:R:3 energy=-11.241597403394945 pbc="F F F"
Cr       0.00000000       0.00000000       0.00000000       0.00000000       0.00000000       0.08893141
Cr       0.00000000       0.00000000       5.41212121       0.00000000       0.00000000      -0.08893141
2
Properties=species:S:1:pos:R:3:forces:R:3 energy=-11.23667933561338 pbc="F F F"
Cr       0.00000000       0.00000000       0.00000000       0.00000000       0.00000000       0.07822948
Cr       0.00000000       0.00000000       5.47090909       0.00000000       0.00000000      -0.07822948
2
Properties=species:S:1:pos:R:3:forces:R:3 energy=-11.23240740782127 pbc="F F F"
Cr       0.00000000       0.00000000       0.00000000       0.00000000       0.00000000       0.06706136
Cr       0.00000000       0.00000000       5.52969697       0.00000000       0.00000000      -0.06706136
2
Properties=species:S:1:pos:R:3:forces:R:3 energy=-11.228789858114547 pbc="F F F"
Cr       0.00000000       0.00000000       0.00000000       0.00000000       0.00000000       0.05611217
Cr       0.00000000       0.00000000       5.58848485       0.00000000       0.00000000      -0.05611217
2
Properties=species:S:1:pos:R:3:forces:R:3 energy=-11.225797568147962 pbc="F F F"
Cr       0.00000000       0.00000000       0.00000000       0.00000000       0.00000000       0.04587504
Cr       0.00000000       0.00000000       5.64727273       0.00000000       0.00000000      -0.04587504
2
Properties=species:S:1:pos:R:3:forces:R:3 energy=-11.223376522673735 pbc="F F F"
Cr       0.00000000       0.00000000       0.00000000       0.00000000       0.00000000       0.03665863
Cr       0.00000000       0.00000000       5.70606061       0.00000000       0.00000000      -0.03665863
2
Properties=species:S:1:pos:R:3:forces:R:3 energy=-11.221461232257976 pbc="F F F"
Cr       0.00000000       0.00000000       0.00000000       0.00000000       0.00000000       0.02866749
Cr       0.00000000       0.00000000       5.76484848       0.00000000       0.00000000      -0.02866749
2
Properties=species:S:1:pos:R:3:forces:R:3 energy=-11.219977595887547 pbc="F F F"
Cr       0.00000000       0.00000000       0.00000000       0.00000000       0.00000000       0.02204815
Cr       0.00000000       0.00000000       5.82363636       0.00000000       0.00000000      -0.02204815
2
Properties=species:S:1:pos:R:3:forces:R:3 energy=-11.218841014212277 pbc="F F F"
Cr       0.00000000       0.00000000       0.00000000       0.00000000       0.00000000       0.01692108
Cr       0.00000000       0.00000000       5.88242424       0.00000000       0.00000000      -0.01692108
2
Properties=species:S:1:pos:R:3:forces:R:3 energy=-11.217956453693354 pbc="F F F"
Cr       0.00000000       0.00000000       0.00000000       0.00000000       0.00000000       0.01343222
Cr       0.00000000       0.00000000       5.94121212       0.00000000       0.00000000      -0.01343222
2
Properties=species:S:1:pos:R:3:forces:R:3 energy=-11.217226054615065 pbc="F F F"
Cr       0.00000000       0.00000000       0.00000000       0.00000000       0.00000000       0.01175158
Cr       0.00000000       0.00000000       6.00000000       0.00000000       0.00000000      -0.01175158
