2
Properties=species:S:1:pos:R:3:forces:R:3 energy=13874.222249725146 pbc="F F F"
Er       0.00000000       0.00000000       0.00000000       0.00000000       0.00000000 -240994.23437500
Er       0.00000000       0.00000000       0.18000000       0.00000000       0.00000000  240994.23437500
2
Properties=species:S:1:pos:R:3:forces:R:3 energy=5425.057210662646 pbc="F F F"
Er       0.00000000       0.00000000       0.00000000       0.00000000       0.00000000  -80325.07031250
Er       0.00000000       0.00000000       0.23878788       0.00000000       0.00000000   80325.07031250
2
Properties=species:S:1:pos:R:3:forces:R:3 energy=2389.526204803271 pbc="F F F"
Er       0.00000000       0.00000000       0.00000000       0.00000000       0.00000000  -31511.49609375
Er       0.00000000       0.00000000       0.29757576       0.00000000       0.00000000   31511.49609375
2
Properties=species:S:1:pos:R:3:forces:R:3 energy=1141.8786217954585 pbc="F F F"
Er       0.00000000       0.00000000       0.00000000       0.00000000       0.00000000  -13677.70117188
Er       0.00000000       0.00000000       0.35636364       0.00000000       0.00000000   13677.70117188
2
Properties=species:S:1:pos:R:3:forces:R:3 energy=582.2245690737548 pbc="F F F"
Er       0.00000000       0.00000000       0.00000000       0.00000000       0.00000000   -6380.64990234
Er       0.00000000       0.00000000       0.41515152       0.00000000       0.00000000    6380.64990234
2
Properties=species:S:1:pos:R:3:forces:R:3 energy=314.1753747378173 pbc="F F F"
Er       0.00000000       0.00000000       0.00000000       0.00000000       0.00000000   -3154.69311523
Er       0.00000000       0.00000000       0.47393939       0.00000000       0.00000000    3154.69311523
2
Properties=species:S:1:pos:R:3:forces:R:3 energy=178.58539368405832 pbc="F F F"
Er       0.00000000       0.00000000       0.00000000       0.00000000       0.00000000   -1640.17785645
Er       0.00000000       0.00000000       0.53272727       0.00000000       0.00000000    1640.17785645
2
Properties=species:S:1:pos:R:3:forces:R:3 energy=106.6398370687759 pbc="F F F"
Er       0.00000000       0.00000000       0.00000000       0.00000000       0.00000000    -891.54132080
Er       0.00000000       0.00000000       0.59151515       0.00000000       0.00000000     891.54132080
2
Properties=species:S:1:pos:R:3:forces:R:3 energy=66.81950934800071 pbc="F F F"
Er       0.00000000       0.00000000       0.00000000       0.00000000       0.00000000    -503.93420410
Er       0.00000000       0.00000000       0.65030303       0.00000000       0.00000000     503.93420410
2
Properties=species:S:1:pos:R:3:forces:R:3 energy=43.95136824971203 pbc="F F F"
Er       0.00000000       0.00000000       0.00000000       0.00000000       0.00000000    -294.73333740
Er       0.00000000       0.00000000       0.70909091       0.00000000       0.00000000     294.73333740
2
Properties=species:S:1:pos:R:3:forces:R:3 energy=30.385381717781563 pbc="F F F"
Er       0.00000000       0.00000000       0.00000000       0.00000000       0.00000000    -177.75524902
Er       0.00000000       0.00000000       0.76787879       0.00000000       0.00000000     177.75524902
2
Properties=species:S:1:pos:R:3:forces:R:3 energy=22.088098709900894 pbc="F F F"
Er       0.00000000       0.00000000       0.00000000       0.00000000       0.00000000    -110.59305573
Er       0.00000000       0.00000000       0.82666667       0.00000000       0.00000000     110.59305573
2
Properties=species:S:1:pos:R:3:forces:R:3 energy=16.83848612975655 pbc="F F F"
Er       0.00000000       0.00000000       0.00000000       0.00000000       0.00000000     -71.49990845
Er       0.00000000       0.00000000       0.88545455       0.00000000       0.00000000      71.49990845
2
Properties=species:S:1:pos:R:3:forces:R:3 energy=13.36272121826728 pbc="F F F"
Er       0.00000000       0.00000000       0.00000000       0.00000000       0.00000000     -48.83448410
Er       0.00000000       0.00000000       0.94424242       0.00000000       0.00000000      48.83448410
2
Properties=species:S:1:pos:R:3:forces:R:3 energy=10.903454045490408 pbc="F F F"
Er       0.00000000       0.00000000       0.00000000       0.00000000       0.00000000     -36.12119293
Er       0.00000000       0.00000000       1.00303030       0.00000000       0.00000000      36.12119293
2
Properties=species:S:1:pos:R:3:forces:R:3 energy=8.994231071851129 pbc="F F F"
Er       0.00000000       0.00000000       0.00000000       0.00000000       0.00000000     -29.65208244
Er       0.00000000       0.00000000       1.06181818       0.00000000       0.00000000      29.65208244
2
Properties=species:S:1:pos:R:3:forces:R:3 energy=7.34142081972727 pbc="F F F"
Er       0.00000000       0.00000000       0.00000000       0.00000000       0.00000000     -27.05197334
Er       0.00000000       0.00000000       1.12060606       0.00000000       0.00000000      27.05197334
2
Properties=species:S:1:pos:R:3:forces:R:3 energy=5.777656797120933 pbc="F F F"
Er       0.00000000       0.00000000       0.00000000       0.00000000       0.00000000     -26.28579712
Er       0.00000000       0.00000000       1.17939394       0.00000000       0.00000000      26.28579712
2
Properties=species:S:1:pos:R:3:forces:R:3 energy=4.252673303699155 pbc="F F F"
Er       0.00000000       0.00000000       0.00000000       0.00000000       0.00000000     -25.45120049
Er       0.00000000       0.00000000       1.23818182       0.00000000       0.00000000      25.45120049
2
Properties=species:S:1:pos:R:3:forces:R:3 energy=2.8104338097878125 pbc="F F F"
Er       0.00000000       0.00000000       0.00000000       0.00000000       0.00000000     -23.37302017
Er       0.00000000       0.00000000       1.29696970       0.00000000       0.00000000      23.37302017
2
Properties=species:S:1:pos:R:3:forces:R:3 energy=1.529546452798475 pbc="F F F"
Er       0.00000000       0.00000000       0.00000000       0.00000000       0.00000000     -20.04124069
Er       0.00000000       0.00000000       1.35575758       0.00000000       0.00000000      20.04124069
2
Properties=species:S:1:pos:R:3:forces:R:3 energy=0.46779690472294083 pbc="F F F"
Er       0.00000000       0.00000000       0.00000000       0.00000000       0.00000000     -15.98767471
Er       0.00000000       0.00000000       1.41454545       0.00000000       0.00000000      15.98767471
2
Properties=species:S:1:pos:R:3:forces:R:3 energy=-0.33798558484614705 pbc="F F F"
Er       0.00000000       0.00000000       0.00000000       0.00000000       0.00000000     -11.30110836
Er       0.00000000       0.00000000       1.47333333       0.00000000       0.00000000      11.30110836
2
Properties=species:S:1:pos:R:3:forces:R:3 energy=-0.8479823258677059 pbc="F F F"
Er       0.00000000       0.00000000       0.00000000       0.00000000       0.00000000      -6.00588417
Er       0.00000000       0.00000000       1.53212121       0.00000000       0.00000000       6.00588417
2
Properties=species:S:1:pos:R:3:forces:R:3 energy=-1.0561859032430947 pbc="F F F"
Er       0.00000000       0.00000000       0.00000000       0.00000000       0.00000000      -1.34848106
Er       0.00000000       0.00000000       1.59090909       0.00000000       0.00000000       1.34848106
2
Properties=species:S:1:pos:R:3:forces:R:3 energy=-1.0532197910085819 pbc="F F F"
Er       0.00000000       0.00000000       0.00000000       0.00000000       0.00000000       0.99495417
Er       0.00000000       0.00000000       1.64969697       0.00000000       0.00000000      -0.99495417
2
Properties=species:S:1:pos:R:3:forces:R:3 energy=-0.9865541921425787 pbc="F F F"
Er       0.00000000       0.00000000       0.00000000       0.00000000       0.00000000       0.97506720
Er       0.00000000       0.00000000       1.70848485       0.00000000       0.00000000      -0.97506720
2
Properties=species:S:1:pos:R:3:forces:R:3 energy=-0.9573563659096754 pbc="F F F"
Er       0.00000000       0.00000000       0.00000000       0.00000000       0.00000000      -0.00671115
Er       0.00000000       0.00000000       1.76727273       0.00000000       0.00000000       0.00671115
2
Properties=species:S:1:pos:R:3:forces:R:3 energy=-0.9778355719384019 pbc="F F F"
Er       0.00000000       0.00000000       0.00000000       0.00000000       0.00000000      -0.53388429
Er       0.00000000       0.00000000       1.82606061       0.00000000       0.00000000       0.53388429
2
Properties=species:S:1:pos:R:3:forces:R:3 energy=-0.9998265208048239 pbc="F F F"
Er       0.00000000       0.00000000       0.00000000       0.00000000       0.00000000      -0.06823935
Er       0.00000000       0.00000000       1.88484848       0.00000000       0.00000000       0.06823935
2
Properties=species:S:1:pos:R:3:forces:R:3 energy=-0.9776166162036487 pbc="F F F"
Er       0.00000000       0.00000000       0.00000000       0.00000000       0.00000000       0.80861390
Er       0.00000000       0.00000000       1.94363636       0.00000000       0.00000000      -0.80861390
2
Properties=species:S:1:pos:R:3:forces:R:3 energy=-0.91351805701808 pbc="F F F"
Er       0.00000000       0.00000000       0.00000000       0.00000000       0.00000000       1.27000964
Er       0.00000000       0.00000000       2.00242424       0.00000000       0.00000000      -1.27000964
2
Properties=species:S:1:pos:R:3:forces:R:3 energy=-0.8389523755762809 pbc="F F F"
Er       0.00000000       0.00000000       0.00000000       0.00000000       0.00000000       1.19994617
Er       0.00000000       0.00000000       2.06121212       0.00000000       0.00000000      -1.19994617
2
Properties=species:S:1:pos:R:3:forces:R:3 energy=-0.7773117244948556 pbc="F F F"
Er       0.00000000       0.00000000       0.00000000       0.00000000       0.00000000       0.87586451
Er       0.00000000       0.00000000       2.12000000       0.00000000       0.00000000      -0.87586451
2
Properties=species:S:1:pos:R:3:forces:R:3 energy=-0.737100085257324 pbc="F F F"
Er       0.00000000       0.00000000       0.00000000       0.00000000       0.00000000       0.48968002
Er       0.00000000       0.00000000       2.17878788       0.00000000       0.00000000      -0.48968002
2
Properties=species:S:1:pos:R:3:forces:R:3 energy=-0.7197121422749769 pbc="F F F"
Er       0.00000000       0.00000000       0.00000000       0.00000000       0.00000000       0.10317008
Er       0.00000000       0.00000000       2.23757576       0.00000000       0.00000000      -0.10317008
2
Properties=species:S:1:pos:R:3:forces:R:3 energy=-0.7248284278189909 pbc="F F F"
Er       0.00000000       0.00000000       0.00000000       0.00000000       0.00000000      -0.27632904
Er       0.00000000       0.00000000       2.29636364       0.00000000       0.00000000       0.27632904
2
Properties=species:S:1:pos:R:3:forces:R:3 energy=-0.7521156205403774 pbc="F F F"
Er       0.00000000       0.00000000       0.00000000       0.00000000       0.00000000      -0.65115654
Er       0.00000000       0.00000000       2.35515152       0.00000000       0.00000000       0.65115654
2
Properties=species:S:1:pos:R:3:forces:R:3 energy=-0.8012160639719926 pbc="F F F"
Er       0.00000000       0.00000000       0.00000000       0.00000000       0.00000000      -1.01682758
Er       0.00000000       0.00000000       2.41393939       0.00000000       0.00000000       1.01682758
2
Properties=species:S:1:pos:R:3:forces:R:3 energy=-0.8712143429716636 pbc="F F F"
Er       0.00000000       0.00000000       0.00000000       0.00000000       0.00000000      -1.35908329
Er       0.00000000       0.00000000       2.47272727       0.00000000       0.00000000       1.35908329
2
Properties=species:S:1:pos:R:3:forces:R:3 energy=-0.9601655979060131 pbc="F F F"
Er       0.00000000       0.00000000       0.00000000       0.00000000       0.00000000      -1.65824294
Er       0.00000000       0.00000000       2.53151515       0.00000000       0.00000000       1.65824294
2
Properties=species:S:1:pos:R:3:forces:R:3 energy=-1.064981563401437 pbc="F F F"
Er       0.00000000       0.00000000       0.00000000       0.00000000       0.00000000      -1.89633405
Er       0.00000000       0.00000000       2.59030303       0.00000000       0.00000000       1.89633405
2
Properties=species:S:1:pos:R:3:forces:R:3 energy=-1.1817076304120215 pbc="F F F"
Er       0.00000000       0.00000000       0.00000000       0.00000000       0.00000000      -2.06217122
Er       0.00000000       0.00000000       2.64909091       0.00000000       0.00000000       2.06217122
2
Properties=species:S:1:pos:R:3:forces:R:3 energy=-1.305941437464396 pbc="F F F"
Er       0.00000000       0.00000000       0.00000000       0.00000000       0.00000000      -2.15148783
Er       0.00000000       0.00000000       2.70787879       0.00000000       0.00000000       2.15148783
2
Properties=species:S:1:pos:R:3:forces:R:3 energy=-1.4331581472914547 pbc="F F F"
Er       0.00000000       0.00000000       0.00000000       0.00000000       0.00000000      -2.16364646
Er       0.00000000       0.00000000       2.76666667       0.00000000       0.00000000       2.16364646
2
Properties=species:S:1:pos:R:3:forces:R:3 energy=-1.5588226260297384 pbc="F F F"
Er       0.00000000       0.00000000       0.00000000       0.00000000       0.00000000      -2.09871125
Er       0.00000000       0.00000000       2.82545455       0.00000000       0.00000000       2.09871125
2
Properties=species:S:1:pos:R:3:forces:R:3 energy=-1.6784181107176677 pbc="F F F"
Er       0.00000000       0.00000000       0.00000000       0.00000000       0.00000000      -1.95746529
Er       0.00000000       0.00000000       2.88424242       0.00000000       0.00000000       1.95746529
2
Properties=species:S:1:pos:R:3:forces:R:3 energy=-1.7875532925796163 pbc="F F F"
Er       0.00000000       0.00000000       0.00000000       0.00000000       0.00000000      -1.74398839
Er       0.00000000       0.00000000       2.94303030       0.00000000       0.00000000       1.74398839
2
Properties=species:S:1:pos:R:3:forces:R:3 energy=-1.8822501562791383 pbc="F F F"
Er       0.00000000       0.00000000       0.00000000       0.00000000       0.00000000      -1.46853781
Er       0.00000000       0.00000000       3.00181818       0.00000000       0.00000000       1.46853781
2
Properties=species:S:1:pos:R:3:forces:R:3 energy=-1.9593376319997378 pbc="F F F"
Er       0.00000000       0.00000000       0.00000000       0.00000000       0.00000000      -1.14829779
Er       0.00000000       0.00000000       3.06060606       0.00000000       0.00000000       1.14829779
2
Properties=species:S:1:pos:R:3:forces:R:3 energy=-2.0168090459154815 pbc="F F F"
Er       0.00000000       0.00000000       0.00000000       0.00000000       0.00000000      -0.80496377
Er       0.00000000       0.00000000       3.11939394       0.00000000       0.00000000       0.80496377
2
Properties=species:S:1:pos:R:3:forces:R:3 energy=-2.053955837335912 pbc="F F F"
Er       0.00000000       0.00000000       0.00000000       0.00000000       0.00000000      -0.46015316
Er       0.00000000       0.00000000       3.17818182       0.00000000       0.00000000       0.46015316
2
Properties=species:S:1:pos:R:3:forces:R:3 energy=-2.071225816028984 pbc="F F F"
Er       0.00000000       0.00000000       0.00000000       0.00000000       0.00000000      -0.13108575
Er       0.00000000       0.00000000       3.23696970       0.00000000       0.00000000       0.13108575
2
Properties=species:S:1:pos:R:3:forces:R:3 energy=-2.0698935697021112 pbc="F F F"
Er       0.00000000       0.00000000       0.00000000       0.00000000       0.00000000       0.17137949
Er       0.00000000       0.00000000       3.29575758       0.00000000       0.00000000      -0.17137949
2
Properties=species:S:1:pos:R:3:forces:R:3 energy=-2.0517048185181075 pbc="F F F"
Er       0.00000000       0.00000000       0.00000000       0.00000000       0.00000000       0.44181126
Er       0.00000000       0.00000000       3.35454545       0.00000000       0.00000000      -0.44181126
2
Properties=species:S:1:pos:R:3:forces:R:3 energy=-2.018624724431061 pbc="F F F"
Er       0.00000000       0.00000000       0.00000000       0.00000000       0.00000000       0.67767316
Er       0.00000000       0.00000000       3.41333333       0.00000000       0.00000000      -0.67767316
2
Properties=species:S:1:pos:R:3:forces:R:3 energy=-1.9727428508722924 pbc="F F F"
Er       0.00000000       0.00000000       0.00000000       0.00000000       0.00000000       0.87695056
Er       0.00000000       0.00000000       3.47212121       0.00000000       0.00000000      -0.87695056
2
Properties=species:S:1:pos:R:3:forces:R:3 energy=-1.9162855548528919 pbc="F F F"
Er       0.00000000       0.00000000       0.00000000       0.00000000       0.00000000       1.03700566
Er       0.00000000       0.00000000       3.53090909       0.00000000       0.00000000      -1.03700566
2
Properties=species:S:1:pos:R:3:forces:R:3 energy=-1.8516436468465671 pbc="F F F"
Er       0.00000000       0.00000000       0.00000000       0.00000000       0.00000000       1.15486932
Er       0.00000000       0.00000000       3.58969697       0.00000000       0.00000000      -1.15486932
2
Properties=species:S:1:pos:R:3:forces:R:3 energy=-1.781368595771379 pbc="F F F"
Er       0.00000000       0.00000000       0.00000000       0.00000000       0.00000000       1.22850478
Er       0.00000000       0.00000000       3.64848485       0.00000000       0.00000000      -1.22850478
2
Properties=species:S:1:pos:R:3:forces:R:3 energy=-1.7080622885712713 pbc="F F F"
Er       0.00000000       0.00000000       0.00000000       0.00000000       0.00000000       1.25836980
Er       0.00000000       0.00000000       3.70727273       0.00000000       0.00000000      -1.25836980
2
Properties=species:S:1:pos:R:3:forces:R:3 energy=-1.6341959461375521 pbc="F F F"
Er       0.00000000       0.00000000       0.00000000       0.00000000       0.00000000       1.24846637
Er       0.00000000       0.00000000       3.76606061       0.00000000       0.00000000      -1.24846637
2
Properties=species:S:1:pos:R:3:forces:R:3 energy=-1.5619059799843833 pbc="F F F"
Er       0.00000000       0.00000000       0.00000000       0.00000000       0.00000000       1.20630467
Er       0.00000000       0.00000000       3.82484848       0.00000000       0.00000000      -1.20630467
2
Properties=species:S:1:pos:R:3:forces:R:3 energy=-1.49280454451306 pbc="F F F"
Er       0.00000000       0.00000000       0.00000000       0.00000000       0.00000000       1.14166641
Er       0.00000000       0.00000000       3.88363636       0.00000000       0.00000000      -1.14166641
2
Properties=species:S:1:pos:R:3:forces:R:3 energy=-1.4279139465601798 pbc="F F F"
Er       0.00000000       0.00000000       0.00000000       0.00000000       0.00000000       1.06470668
Er       0.00000000       0.00000000       3.94242424       0.00000000       0.00000000      -1.06470668
2
Properties=species:S:1:pos:R:3:forces:R:3 energy=-1.3676911973435981 pbc="F F F"
Er       0.00000000       0.00000000       0.00000000       0.00000000       0.00000000       0.98412108
Er       0.00000000       0.00000000       4.00121212       0.00000000       0.00000000      -0.98412108
2
Properties=species:S:1:pos:R:3:forces:R:3 energy=-1.3121543984839776 pbc="F F F"
Er       0.00000000       0.00000000       0.00000000       0.00000000       0.00000000       0.90604323
Er       0.00000000       0.00000000       4.06000000       0.00000000       0.00000000      -0.90604323
2
Properties=species:S:1:pos:R:3:forces:R:3 energy=-1.2610463426675136 pbc="F F F"
Er       0.00000000       0.00000000       0.00000000       0.00000000       0.00000000       0.83382058
Er       0.00000000       0.00000000       4.11878788       0.00000000       0.00000000      -0.83382058
2
Properties=species:S:1:pos:R:3:forces:R:3 energy=-1.2139817866357314 pbc="F F F"
Er       0.00000000       0.00000000       0.00000000       0.00000000       0.00000000       0.76845181
Er       0.00000000       0.00000000       4.17757576       0.00000000       0.00000000      -0.76845181
2
Properties=species:S:1:pos:R:3:forces:R:3 energy=-1.1705703507953216 pbc="F F F"
Er       0.00000000       0.00000000       0.00000000       0.00000000       0.00000000       0.70937562
Er       0.00000000       0.00000000       4.23636364       0.00000000       0.00000000      -0.70937562
2
Properties=species:S:1:pos:R:3:forces:R:3 energy=-1.130478175763414 pbc="F F F"
Er       0.00000000       0.00000000       0.00000000       0.00000000       0.00000000       0.65526444
Er       0.00000000       0.00000000       4.29515152       0.00000000       0.00000000      -0.65526444
2
Properties=species:S:1:pos:R:3:forces:R:3 energy=-1.0934581520099222 pbc="F F F"
Er       0.00000000       0.00000000       0.00000000       0.00000000       0.00000000       0.60470438
Er       0.00000000       0.00000000       4.35393939       0.00000000       0.00000000      -0.60470438
2
Properties=species:S:1:pos:R:3:forces:R:3 energy=-1.059332041047957 pbc="F F F"
Er       0.00000000       0.00000000       0.00000000       0.00000000       0.00000000       0.55664736
Er       0.00000000       0.00000000       4.41272727       0.00000000       0.00000000      -0.55664736
2
Properties=species:S:1:pos:R:3:forces:R:3 energy=-1.0279690163458122 pbc="F F F"
Er       0.00000000       0.00000000       0.00000000       0.00000000       0.00000000       0.51068401
Er       0.00000000       0.00000000       4.47151515       0.00000000       0.00000000      -0.51068401
2
Properties=species:S:1:pos:R:3:forces:R:3 energy=-0.9992418818394794 pbc="F F F"
Er       0.00000000       0.00000000       0.00000000       0.00000000       0.00000000       0.46705812
Er       0.00000000       0.00000000       4.53030303       0.00000000       0.00000000      -0.46705812
2
Properties=species:S:1:pos:R:3:forces:R:3 energy=-0.9729945468035323 pbc="F F F"
Er       0.00000000       0.00000000       0.00000000       0.00000000       0.00000000       0.42649156
Er       0.00000000       0.00000000       4.58909091       0.00000000       0.00000000      -0.42649156
2
Properties=species:S:1:pos:R:3:forces:R:3 energy=-0.9490193619989302 pbc="F F F"
Er       0.00000000       0.00000000       0.00000000       0.00000000       0.00000000       0.38990077
Er       0.00000000       0.00000000       4.64787879       0.00000000       0.00000000      -0.38990077
2
Properties=species:S:1:pos:R:3:forces:R:3 energy=-0.9270575040593576 pbc="F F F"
Er       0.00000000       0.00000000       0.00000000       0.00000000       0.00000000       0.35808629
Er       0.00000000       0.00000000       4.70666667       0.00000000       0.00000000      -0.35808629
2
Properties=species:S:1:pos:R:3:forces:R:3 energy=-0.9068137839536579 pbc="F F F"
Er       0.00000000       0.00000000       0.00000000       0.00000000       0.00000000       0.33152863
Er       0.00000000       0.00000000       4.76545455       0.00000000       0.00000000      -0.33152863
2
Properties=species:S:1:pos:R:3:forces:R:3 energy=-0.8879728784561447 pbc="F F F"
Er       0.00000000       0.00000000       0.00000000       0.00000000       0.00000000       0.31027889
Er       0.00000000       0.00000000       4.82424242       0.00000000       0.00000000      -0.31027889
2
Properties=species:S:1:pos:R:3:forces:R:3 energy=-0.8702360681985633 pbc="F F F"
Er       0.00000000       0.00000000       0.00000000       0.00000000       0.00000000       0.29396796
Er       0.00000000       0.00000000       4.88303030       0.00000000       0.00000000      -0.29396796
2
Properties=species:S:1:pos:R:3:forces:R:3 energy=-0.8533275900245035 pbc="F F F"
Er       0.00000000       0.00000000       0.00000000       0.00000000       0.00000000       0.28185084
Er       0.00000000       0.00000000       4.94181818       0.00000000       0.00000000      -0.28185084
2
Properties=species:S:1:pos:R:3:forces:R:3 energy=-0.8370343210115324 pbc="F F F"
Er       0.00000000       0.00000000       0.00000000       0.00000000       0.00000000       0.27290270
Er       0.00000000       0.00000000       5.00060606       0.00000000       0.00000000      -0.27290270
2
Properties=species:S:1:pos:R:3:forces:R:3 energy=-0.8212021780178818 pbc="F F F"
Er       0.00000000       0.00000000       0.00000000       0.00000000       0.00000000       0.26589891
Er       0.00000000       0.00000000       5.05939394       0.00000000       0.00000000      -0.26589891
2
Properties=species:S:1:pos:R:3:forces:R:3 energy=-0.8057586053045581 pbc="F F F"
Er       0.00000000       0.00000000       0.00000000       0.00000000       0.00000000       0.25953102
Er       0.00000000       0.00000000       5.11818182       0.00000000       0.00000000      -0.25953102
2
Properties=species:S:1:pos:R:3:forces:R:3 energy=-0.7907010835101888 pbc="F F F"
Er       0.00000000       0.00000000       0.00000000       0.00000000       0.00000000       0.25252944
Er       0.00000000       0.00000000       5.17696970       0.00000000       0.00000000      -0.25252944
2
Properties=species:S:1:pos:R:3:forces:R:3 energy=-0.7761018891031141 pbc="F F F"
Er       0.00000000       0.00000000       0.00000000       0.00000000       0.00000000       0.24379757
Er       0.00000000       0.00000000       5.23575758       0.00000000       0.00000000      -0.24379757
2
Properties=species:S:1:pos:R:3:forces:R:3 energy=-0.7620867092331431 pbc="F F F"
Er       0.00000000       0.00000000       0.00000000       0.00000000       0.00000000       0.23252612
Er       0.00000000       0.00000000       5.29454545       0.00000000       0.00000000      -0.23252612
2
Properties=species:S:1:pos:R:3:forces:R:3 energy=-0.7488203783824724 pbc="F F F"
Er       0.00000000       0.00000000       0.00000000       0.00000000       0.00000000       0.21828198
Er       0.00000000       0.00000000       5.35333333       0.00000000       0.00000000      -0.21828198
2
Properties=species:S:1:pos:R:3:forces:R:3 energy=-0.7364814856190582 pbc="F F F"
Er       0.00000000       0.00000000       0.00000000       0.00000000       0.00000000       0.20104007
Er       0.00000000       0.00000000       5.41212121       0.00000000       0.00000000      -0.20104007
2
Properties=species:S:1:pos:R:3:forces:R:3 energy=-0.7252342895535342 pbc="F F F"
Er       0.00000000       0.00000000       0.00000000       0.00000000       0.00000000       0.18117785
Er       0.00000000       0.00000000       5.47090909       0.00000000       0.00000000      -0.18117785
2
Properties=species:S:1:pos:R:3:forces:R:3 energy=-0.7152159413544492 pbc="F F F"
Er       0.00000000       0.00000000       0.00000000       0.00000000       0.00000000       0.15938874
Er       0.00000000       0.00000000       5.52969697       0.00000000       0.00000000      -0.15938874
2
Properties=species:S:1:pos:R:3:forces:R:3 energy=-0.7065138338153016 pbc="F F F"
Er       0.00000000       0.00000000       0.00000000       0.00000000       0.00000000       0.13659474
Er       0.00000000       0.00000000       5.58848485       0.00000000       0.00000000      -0.13659474
2
Properties=species:S:1:pos:R:3:forces:R:3 energy=-0.6991578173206983 pbc="F F F"
Er       0.00000000       0.00000000       0.00000000       0.00000000       0.00000000       0.11386555
Er       0.00000000       0.00000000       5.64727273       0.00000000       0.00000000      -0.11386555
2
Properties=species:S:1:pos:R:3:forces:R:3 energy=-0.6931054357334311 pbc="F F F"
Er       0.00000000       0.00000000       0.00000000       0.00000000       0.00000000       0.09226440
Er       0.00000000       0.00000000       5.70606061       0.00000000       0.00000000      -0.09226440
2
Properties=species:S:1:pos:R:3:forces:R:3 energy=-0.6882610347268487 pbc="F F F"
Er       0.00000000       0.00000000       0.00000000       0.00000000       0.00000000       0.07279778
Er       0.00000000       0.00000000       5.76484848       0.00000000       0.00000000      -0.07279778
2
Properties=species:S:1:pos:R:3:forces:R:3 energy=-0.6844817147457384 pbc="F F F"
Er       0.00000000       0.00000000       0.00000000       0.00000000       0.00000000       0.05638821
Er       0.00000000       0.00000000       5.82363636       0.00000000       0.00000000      -0.05638821
2
Properties=species:S:1:pos:R:3:forces:R:3 energy=-0.6815621249022866 pbc="F F F"
Er       0.00000000       0.00000000       0.00000000       0.00000000       0.00000000       0.04374892
Er       0.00000000       0.00000000       5.88242424       0.00000000       0.00000000      -0.04374892
2
Properties=species:S:1:pos:R:3:forces:R:3 energy=-0.6792528782274698 pbc="F F F"
Er       0.00000000       0.00000000       0.00000000       0.00000000       0.00000000       0.03552044
Er       0.00000000       0.00000000       5.94121212       0.00000000       0.00000000      -0.03552044
2
Properties=species:S:1:pos:R:3:forces:R:3 energy=-0.6772892298407053 pbc="F F F"
Er       0.00000000       0.00000000       0.00000000       0.00000000       0.00000000       0.03216203
Er       0.00000000       0.00000000       6.00000000       0.00000000       0.00000000      -0.03216203
