2
Properties=species:S:1:pos:R:3:forces:R:3 energy=4838.960191311726 pbc="F F F"
Ge       0.00000000       0.00000000       0.00000000       0.00000000       0.00000000  -76634.45312500
Ge       0.00000000       0.00000000       0.18000000       0.00000000       0.00000000   76634.45312500
2
Properties=species:S:1:pos:R:3:forces:R:3 energy=2069.101548733601 pbc="F F F"
Ge       0.00000000       0.00000000       0.00000000       0.00000000       0.00000000  -27470.52343750
Ge       0.00000000       0.00000000       0.23878788       0.00000000       0.00000000   27470.52343750
2
Properties=species:S:1:pos:R:3:forces:R:3 energy=998.3910995148507 pbc="F F F"
Ge       0.00000000       0.00000000       0.00000000       0.00000000       0.00000000  -11595.51171875
Ge       0.00000000       0.00000000       0.29757576       0.00000000       0.00000000   11595.51171875
2
Properties=species:S:1:pos:R:3:forces:R:3 energy=524.0525985414561 pbc="F F F"
Ge       0.00000000       0.00000000       0.00000000       0.00000000       0.00000000   -5425.52636719
Ge       0.00000000       0.00000000       0.35636364       0.00000000       0.00000000    5425.52636719
2
Properties=species:S:1:pos:R:3:forces:R:3 energy=294.88090665642824 pbc="F F F"
Ge       0.00000000       0.00000000       0.00000000       0.00000000       0.00000000   -2716.76538086
Ge       0.00000000       0.00000000       0.41515152       0.00000000       0.00000000    2716.76538086
2
Properties=species:S:1:pos:R:3:forces:R:3 energy=177.56584319570484 pbc="F F F"
Ge       0.00000000       0.00000000       0.00000000       0.00000000       0.00000000   -1425.06274414
Ge       0.00000000       0.00000000       0.47393939       0.00000000       0.00000000    1425.06274414
2
Properties=species:S:1:pos:R:3:forces:R:3 energy=115.07035219638321 pbc="F F F"
Ge       0.00000000       0.00000000       0.00000000       0.00000000       0.00000000    -772.19000244
Ge       0.00000000       0.00000000       0.53272727       0.00000000       0.00000000     772.19000244
2
Properties=species:S:1:pos:R:3:forces:R:3 energy=80.79786842138478 pbc="F F F"
Ge       0.00000000       0.00000000       0.00000000       0.00000000       0.00000000    -429.80627441
Ge       0.00000000       0.00000000       0.59151515       0.00000000       0.00000000     429.80627441
2
Properties=species:S:1:pos:R:3:forces:R:3 energy=61.395986338452936 pbc="F F F"
Ge       0.00000000       0.00000000       0.00000000       0.00000000       0.00000000    -250.05967712
Ge       0.00000000       0.00000000       0.65030303       0.00000000       0.00000000     250.05967712
2
Properties=species:S:1:pos:R:3:forces:R:3 energy=49.589494619694825 pbc="F F F"
Ge       0.00000000       0.00000000       0.00000000       0.00000000       0.00000000    -163.57542419
Ge       0.00000000       0.00000000       0.70909091       0.00000000       0.00000000     163.57542419
2
Properties=species:S:1:pos:R:3:forces:R:3 energy=41.19298374772241 pbc="F F F"
Ge       0.00000000       0.00000000       0.00000000       0.00000000       0.00000000    -124.61219025
Ge       0.00000000       0.00000000       0.76787879       0.00000000       0.00000000     124.61219025
2
Properties=species:S:1:pos:R:3:forces:R:3 energy=35.539122052321616 pbc="F F F"
Ge       0.00000000       0.00000000       0.00000000       0.00000000       0.00000000     -58.92453384
Ge       0.00000000       0.00000000       0.82666667       0.00000000       0.00000000      58.92453384
2
Properties=species:S:1:pos:R:3:forces:R:3 energy=32.68207826634255 pbc="F F F"
Ge       0.00000000       0.00000000       0.00000000       0.00000000       0.00000000     -65.13569641
Ge       0.00000000       0.00000000       0.88545455       0.00000000       0.00000000      65.13569641
2
Properties=species:S:1:pos:R:3:forces:R:3 energy=27.445184267020455 pbc="F F F"
Ge       0.00000000       0.00000000       0.00000000       0.00000000       0.00000000    -105.83293152
Ge       0.00000000       0.00000000       0.94424242       0.00000000       0.00000000     105.83293152
2
Properties=species:S:1:pos:R:3:forces:R:3 energy=20.830999770073547 pbc="F F F"
Ge       0.00000000       0.00000000       0.00000000       0.00000000       0.00000000    -114.81977844
Ge       0.00000000       0.00000000       1.00303030       0.00000000       0.00000000     114.81977844
2
Properties=species:S:1:pos:R:3:forces:R:3 energy=14.410949326279024 pbc="F F F"
Ge       0.00000000       0.00000000       0.00000000       0.00000000       0.00000000    -100.34465027
Ge       0.00000000       0.00000000       1.06181818       0.00000000       0.00000000     100.34465027
2
Properties=species:S:1:pos:R:3:forces:R:3 energy=9.304341480176477 pbc="F F F"
Ge       0.00000000       0.00000000       0.00000000       0.00000000       0.00000000     -72.16986847
Ge       0.00000000       0.00000000       1.12060606       0.00000000       0.00000000      72.16986847
2
Properties=species:S:1:pos:R:3:forces:R:3 energy=5.91098807782616 pbc="F F F"
Ge       0.00000000       0.00000000       0.00000000       0.00000000       0.00000000     -44.69523621
Ge       0.00000000       0.00000000       1.17939394       0.00000000       0.00000000      44.69523621
2
Properties=species:S:1:pos:R:3:forces:R:3 energy=3.807401795747917 pbc="F F F"
Ge       0.00000000       0.00000000       0.00000000       0.00000000       0.00000000     -28.89782524
Ge       0.00000000       0.00000000       1.23818182       0.00000000       0.00000000      28.89782524
2
Properties=species:S:1:pos:R:3:forces:R:3 energy=2.3460560354659115 pbc="F F F"
Ge       0.00000000       0.00000000       0.00000000       0.00000000       0.00000000     -21.65401459
Ge       0.00000000       0.00000000       1.29696970       0.00000000       0.00000000      21.65401459
2
Properties=species:S:1:pos:R:3:forces:R:3 energy=1.205689539922961 pbc="F F F"
Ge       0.00000000       0.00000000       0.00000000       0.00000000       0.00000000     -17.38516426
Ge       0.00000000       0.00000000       1.35575758       0.00000000       0.00000000      17.38516426
2
Properties=species:S:1:pos:R:3:forces:R:3 energy=0.28423537042661495 pbc="F F F"
Ge       0.00000000       0.00000000       0.00000000       0.00000000       0.00000000     -14.08165836
Ge       0.00000000       0.00000000       1.41454545       0.00000000       0.00000000      14.08165836
2
Properties=species:S:1:pos:R:3:forces:R:3 energy=-0.4650914961840108 pbc="F F F"
Ge       0.00000000       0.00000000       0.00000000       0.00000000       0.00000000     -11.55205250
Ge       0.00000000       0.00000000       1.47333333       0.00000000       0.00000000      11.55205250
2
Properties=species:S:1:pos:R:3:forces:R:3 energy=-1.090278521830922 pbc="F F F"
Ge       0.00000000       0.00000000       0.00000000       0.00000000       0.00000000      -9.84010124
Ge       0.00000000       0.00000000       1.53212121       0.00000000       0.00000000       9.84010124
2
Properties=species:S:1:pos:R:3:forces:R:3 energy=-1.633258851401666 pbc="F F F"
Ge       0.00000000       0.00000000       0.00000000       0.00000000       0.00000000      -8.69789505
Ge       0.00000000       0.00000000       1.59090909       0.00000000       0.00000000       8.69789505
2
Properties=species:S:1:pos:R:3:forces:R:3 energy=-2.1175369148246226 pbc="F F F"
Ge       0.00000000       0.00000000       0.00000000       0.00000000       0.00000000      -7.79534149
Ge       0.00000000       0.00000000       1.64969697       0.00000000       0.00000000       7.79534149
2
Properties=species:S:1:pos:R:3:forces:R:3 energy=-2.5503827187974117 pbc="F F F"
Ge       0.00000000       0.00000000       0.00000000       0.00000000       0.00000000      -6.92768431
Ge       0.00000000       0.00000000       1.70848485       0.00000000       0.00000000       6.92768431
2
Properties=species:S:1:pos:R:3:forces:R:3 energy=-2.931552996837762 pbc="F F F"
Ge       0.00000000       0.00000000       0.00000000       0.00000000       0.00000000      -6.03610086
Ge       0.00000000       0.00000000       1.76727273       0.00000000       0.00000000       6.03610086
2
Properties=species:S:1:pos:R:3:forces:R:3 energy=-3.259798535457504 pbc="F F F"
Ge       0.00000000       0.00000000       0.00000000       0.00000000       0.00000000      -5.12998819
Ge       0.00000000       0.00000000       1.82606061       0.00000000       0.00000000       5.12998819
2
Properties=species:S:1:pos:R:3:forces:R:3 energy=-3.5347342934830466 pbc="F F F"
Ge       0.00000000       0.00000000       0.00000000       0.00000000       0.00000000      -4.22483349
Ge       0.00000000       0.00000000       1.88484848       0.00000000       0.00000000       4.22483349
2
Properties=species:S:1:pos:R:3:forces:R:3 energy=-3.7569172088755405 pbc="F F F"
Ge       0.00000000       0.00000000       0.00000000       0.00000000       0.00000000      -3.33977985
Ge       0.00000000       0.00000000       1.94363636       0.00000000       0.00000000       3.33977985
2
Properties=species:S:1:pos:R:3:forces:R:3 energy=-3.928513538669428 pbc="F F F"
Ge       0.00000000       0.00000000       0.00000000       0.00000000       0.00000000      -2.51128125
Ge       0.00000000       0.00000000       2.00242424       0.00000000       0.00000000       2.51128125
2
Properties=species:S:1:pos:R:3:forces:R:3 energy=-4.05415438086199 pbc="F F F"
Ge       0.00000000       0.00000000       0.00000000       0.00000000       0.00000000      -1.78282869
Ge       0.00000000       0.00000000       2.06121212       0.00000000       0.00000000       1.78282869
2
Properties=species:S:1:pos:R:3:forces:R:3 energy=-4.140629974277608 pbc="F F F"
Ge       0.00000000       0.00000000       0.00000000       0.00000000       0.00000000      -1.18086290
Ge       0.00000000       0.00000000       2.12000000       0.00000000       0.00000000       1.18086290
2
Properties=species:S:1:pos:R:3:forces:R:3 energy=-4.195441715180692 pbc="F F F"
Ge       0.00000000       0.00000000       0.00000000       0.00000000       0.00000000      -0.70288724
Ge       0.00000000       0.00000000       2.17878788       0.00000000       0.00000000       0.70288724
2
Properties=species:S:1:pos:R:3:forces:R:3 energy=-4.225183295123587 pbc="F F F"
Ge       0.00000000       0.00000000       0.00000000       0.00000000       0.00000000      -0.32195711
Ge       0.00000000       0.00000000       2.23757576       0.00000000       0.00000000       0.32195711
2
Properties=species:S:1:pos:R:3:forces:R:3 energy=-4.234424570879035 pbc="F F F"
Ge       0.00000000       0.00000000       0.00000000       0.00000000       0.00000000       0.00127946
Ge       0.00000000       0.00000000       2.29636364       0.00000000       0.00000000      -0.00127946
2
Properties=species:S:1:pos:R:3:forces:R:3 energy=-4.2254265393646335 pbc="F F F"
Ge       0.00000000       0.00000000       0.00000000       0.00000000       0.00000000       0.30385092
Ge       0.00000000       0.00000000       2.35515152       0.00000000       0.00000000      -0.30385092
2
Properties=species:S:1:pos:R:3:forces:R:3 energy=-4.198653164479451 pbc="F F F"
Ge       0.00000000       0.00000000       0.00000000       0.00000000       0.00000000       0.60809958
Ge       0.00000000       0.00000000       2.41393939       0.00000000       0.00000000      -0.60809958
2
Properties=species:S:1:pos:R:3:forces:R:3 energy=-4.153824613687995 pbc="F F F"
Ge       0.00000000       0.00000000       0.00000000       0.00000000       0.00000000       0.91711396
Ge       0.00000000       0.00000000       2.47272727       0.00000000       0.00000000      -0.91711396
2
Properties=species:S:1:pos:R:3:forces:R:3 energy=-4.0909706576671 pbc="F F F"
Ge       0.00000000       0.00000000       0.00000000       0.00000000       0.00000000       1.21833444
Ge       0.00000000       0.00000000       2.53151515       0.00000000       0.00000000      -1.21833444
2
Properties=species:S:1:pos:R:3:forces:R:3 energy=-4.011127288564744 pbc="F F F"
Ge       0.00000000       0.00000000       0.00000000       0.00000000       0.00000000       1.49156046
Ge       0.00000000       0.00000000       2.59030303       0.00000000       0.00000000      -1.49156046
2
Properties=species:S:1:pos:R:3:forces:R:3 energy=-3.9165486558146694 pbc="F F F"
Ge       0.00000000       0.00000000       0.00000000       0.00000000       0.00000000       1.71654630
Ge       0.00000000       0.00000000       2.64909091       0.00000000       0.00000000      -1.71654630
2
Properties=species:S:1:pos:R:3:forces:R:3 energy=-3.8105513821972425 pbc="F F F"
Ge       0.00000000       0.00000000       0.00000000       0.00000000       0.00000000       1.87810147
Ge       0.00000000       0.00000000       2.70787879       0.00000000       0.00000000      -1.87810147
2
Properties=species:S:1:pos:R:3:forces:R:3 energy=-3.6971210051621797 pbc="F F F"
Ge       0.00000000       0.00000000       0.00000000       0.00000000       0.00000000       1.96893537
Ge       0.00000000       0.00000000       2.76666667       0.00000000       0.00000000      -1.96893537
2
Properties=species:S:1:pos:R:3:forces:R:3 energy=-3.5803989641040075 pbc="F F F"
Ge       0.00000000       0.00000000       0.00000000       0.00000000       0.00000000       1.99133587
Ge       0.00000000       0.00000000       2.82545455       0.00000000       0.00000000      -1.99133587
2
Properties=species:S:1:pos:R:3:forces:R:3 energy=-3.464097195065305 pbc="F F F"
Ge       0.00000000       0.00000000       0.00000000       0.00000000       0.00000000       1.95734882
Ge       0.00000000       0.00000000       2.88424242       0.00000000       0.00000000      -1.95734882
2
Properties=species:S:1:pos:R:3:forces:R:3 energy=-3.3510145216615213 pbc="F F F"
Ge       0.00000000       0.00000000       0.00000000       0.00000000       0.00000000       1.88490725
Ge       0.00000000       0.00000000       2.94303030       0.00000000       0.00000000      -1.88490725
2
Properties=species:S:1:pos:R:3:forces:R:3 energy=-3.2429001510623046 pbc="F F F"
Ge       0.00000000       0.00000000       0.00000000       0.00000000       0.00000000       1.79071724
Ge       0.00000000       0.00000000       3.00181818       0.00000000       0.00000000      -1.79071724
2
Properties=species:S:1:pos:R:3:forces:R:3 energy=-3.1406608703182686 pbc="F F F"
Ge       0.00000000       0.00000000       0.00000000       0.00000000       0.00000000       1.68662429
Ge       0.00000000       0.00000000       3.06060606       0.00000000       0.00000000      -1.68662429
2
Properties=species:S:1:pos:R:3:forces:R:3 energy=-3.0446357500068983 pbc="F F F"
Ge       0.00000000       0.00000000       0.00000000       0.00000000       0.00000000       1.58032250
Ge       0.00000000       0.00000000       3.11939394       0.00000000       0.00000000      -1.58032250
2
Properties=species:S:1:pos:R:3:forces:R:3 energy=-2.954801894656843 pbc="F F F"
Ge       0.00000000       0.00000000       0.00000000       0.00000000       0.00000000       1.47660053
Ge       0.00000000       0.00000000       3.17818182       0.00000000       0.00000000      -1.47660053
2
Properties=species:S:1:pos:R:3:forces:R:3 energy=-2.8709106083871783 pbc="F F F"
Ge       0.00000000       0.00000000       0.00000000       0.00000000       0.00000000       1.37862921
Ge       0.00000000       0.00000000       3.23696970       0.00000000       0.00000000      -1.37862921
2
Properties=species:S:1:pos:R:3:forces:R:3 energy=-2.7925408712549724 pbc="F F F"
Ge       0.00000000       0.00000000       0.00000000       0.00000000       0.00000000       1.28921354
Ge       0.00000000       0.00000000       3.29575758       0.00000000       0.00000000      -1.28921354
2
Properties=species:S:1:pos:R:3:forces:R:3 energy=-2.7191059132854947 pbc="F F F"
Ge       0.00000000       0.00000000       0.00000000       0.00000000       0.00000000       1.21123242
Ge       0.00000000       0.00000000       3.35454545       0.00000000       0.00000000      -1.21123242
2
Properties=species:S:1:pos:R:3:forces:R:3 energy=-2.649856858811821 pbc="F F F"
Ge       0.00000000       0.00000000       0.00000000       0.00000000       0.00000000       1.14710677
Ge       0.00000000       0.00000000       3.41333333       0.00000000       0.00000000      -1.14710677
2
Properties=species:S:1:pos:R:3:forces:R:3 energy=-2.5839410433526493 pbc="F F F"
Ge       0.00000000       0.00000000       0.00000000       0.00000000       0.00000000       1.09784412
Ge       0.00000000       0.00000000       3.47212121       0.00000000       0.00000000      -1.09784412
2
Properties=species:S:1:pos:R:3:forces:R:3 energy=-2.5205057427176065 pbc="F F F"
Ge       0.00000000       0.00000000       0.00000000       0.00000000       0.00000000       1.06237888
Ge       0.00000000       0.00000000       3.53090909       0.00000000       0.00000000      -1.06237888
2
Properties=species:S:1:pos:R:3:forces:R:3 energy=-2.4588205115928634 pbc="F F F"
Ge       0.00000000       0.00000000       0.00000000       0.00000000       0.00000000       1.03758919
Ge       0.00000000       0.00000000       3.58969697       0.00000000       0.00000000      -1.03758919
2
Properties=species:S:1:pos:R:3:forces:R:3 energy=-2.3983873240932803 pbc="F F F"
Ge       0.00000000       0.00000000       0.00000000       0.00000000       0.00000000       1.01901758
Ge       0.00000000       0.00000000       3.64848485       0.00000000       0.00000000      -1.01901758
2
Properties=species:S:1:pos:R:3:forces:R:3 energy=-2.3389814873954173 pbc="F F F"
Ge       0.00000000       0.00000000       0.00000000       0.00000000       0.00000000       1.00189888
Ge       0.00000000       0.00000000       3.70727273       0.00000000       0.00000000      -1.00189888
2
Properties=species:S:1:pos:R:3:forces:R:3 energy=-2.280640870887867 pbc="F F F"
Ge       0.00000000       0.00000000       0.00000000       0.00000000       0.00000000       0.98213899
Ge       0.00000000       0.00000000       3.76606061       0.00000000       0.00000000      -0.98213899
2
Properties=species:S:1:pos:R:3:forces:R:3 energy=-2.2236132021620705 pbc="F F F"
Ge       0.00000000       0.00000000       0.00000000       0.00000000       0.00000000       0.95692503
Ge       0.00000000       0.00000000       3.82484848       0.00000000       0.00000000      -0.95692503
2
Properties=species:S:1:pos:R:3:forces:R:3 energy=-2.168264393068777 pbc="F F F"
Ge       0.00000000       0.00000000       0.00000000       0.00000000       0.00000000       0.92489153
Ge       0.00000000       0.00000000       3.88363636       0.00000000       0.00000000      -0.92489153
2
Properties=species:S:1:pos:R:3:forces:R:3 energy=-2.115004661636748 pbc="F F F"
Ge       0.00000000       0.00000000       0.00000000       0.00000000       0.00000000       0.88593256
Ge       0.00000000       0.00000000       3.94242424       0.00000000       0.00000000      -0.88593256
2
Properties=species:S:1:pos:R:3:forces:R:3 energy=-2.0642218128844743 pbc="F F F"
Ge       0.00000000       0.00000000       0.00000000       0.00000000       0.00000000       0.84081680
Ge       0.00000000       0.00000000       4.00121212       0.00000000       0.00000000      -0.84081680
2
Properties=species:S:1:pos:R:3:forces:R:3 energy=-2.016241864908578 pbc="F F F"
Ge       0.00000000       0.00000000       0.00000000       0.00000000       0.00000000       0.79076922
Ge       0.00000000       0.00000000       4.06000000       0.00000000       0.00000000      -0.79076922
2
Properties=species:S:1:pos:R:3:forces:R:3 energy=-1.971316625775126 pbc="F F F"
Ge       0.00000000       0.00000000       0.00000000       0.00000000       0.00000000       0.73716247
Ge       0.00000000       0.00000000       4.11878788       0.00000000       0.00000000      -0.73716247
2
Properties=species:S:1:pos:R:3:forces:R:3 energy=-1.929612772614367 pbc="F F F"
Ge       0.00000000       0.00000000       0.00000000       0.00000000       0.00000000       0.68133104
Ge       0.00000000       0.00000000       4.17757576       0.00000000       0.00000000      -0.68133104
2
Properties=species:S:1:pos:R:3:forces:R:3 energy=-1.8912266799220199 pbc="F F F"
Ge       0.00000000       0.00000000       0.00000000       0.00000000       0.00000000       0.62451863
Ge       0.00000000       0.00000000       4.23636364       0.00000000       0.00000000      -0.62451863
2
Properties=species:S:1:pos:R:3:forces:R:3 energy=-1.8561807609172087 pbc="F F F"
Ge       0.00000000       0.00000000       0.00000000       0.00000000       0.00000000       0.56786275
Ge       0.00000000       0.00000000       4.29515152       0.00000000       0.00000000      -0.56786275
2
Properties=species:S:1:pos:R:3:forces:R:3 energy=-1.8244361215661373 pbc="F F F"
Ge       0.00000000       0.00000000       0.00000000       0.00000000       0.00000000       0.51243871
Ge       0.00000000       0.00000000       4.35393939       0.00000000       0.00000000      -0.51243871
2
Properties=species:S:1:pos:R:3:forces:R:3 energy=-1.7958875272813983 pbc="F F F"
Ge       0.00000000       0.00000000       0.00000000       0.00000000       0.00000000       0.45924836
Ge       0.00000000       0.00000000       4.41272727       0.00000000       0.00000000      -0.45924836
2
Properties=species:S:1:pos:R:3:forces:R:3 energy=-1.7703768308060936 pbc="F F F"
Ge       0.00000000       0.00000000       0.00000000       0.00000000       0.00000000       0.40923756
Ge       0.00000000       0.00000000       4.47151515       0.00000000       0.00000000      -0.40923756
2
Properties=species:S:1:pos:R:3:forces:R:3 energy=-1.747691546870052 pbc="F F F"
Ge       0.00000000       0.00000000       0.00000000       0.00000000       0.00000000       0.36325487
Ge       0.00000000       0.00000000       4.53030303       0.00000000       0.00000000      -0.36325487
2
Properties=species:S:1:pos:R:3:forces:R:3 energy=-1.7275740317210833 pbc="F F F"
Ge       0.00000000       0.00000000       0.00000000       0.00000000       0.00000000       0.32200736
Ge       0.00000000       0.00000000       4.58909091       0.00000000       0.00000000      -0.32200736
2
Properties=species:S:1:pos:R:3:forces:R:3 energy=-1.709729369945022 pbc="F F F"
Ge       0.00000000       0.00000000       0.00000000       0.00000000       0.00000000       0.28597629
Ge       0.00000000       0.00000000       4.64787879       0.00000000       0.00000000      -0.28597629
2
Properties=species:S:1:pos:R:3:forces:R:3 energy=-1.693844021048058 pbc="F F F"
Ge       0.00000000       0.00000000       0.00000000       0.00000000       0.00000000       0.25533235
Ge       0.00000000       0.00000000       4.70666667       0.00000000       0.00000000      -0.25533235
2
Properties=species:S:1:pos:R:3:forces:R:3 energy=-1.679606774533162 pbc="F F F"
Ge       0.00000000       0.00000000       0.00000000       0.00000000       0.00000000       0.22986808
Ge       0.00000000       0.00000000       4.76545455       0.00000000       0.00000000      -0.22986808
2
Properties=species:S:1:pos:R:3:forces:R:3 energy=-1.6667264027943638 pbc="F F F"
Ge       0.00000000       0.00000000       0.00000000       0.00000000       0.00000000       0.20900425
Ge       0.00000000       0.00000000       4.82424242       0.00000000       0.00000000      -0.20900425
2
Properties=species:S:1:pos:R:3:forces:R:3 energy=-1.654960085196731 pbc="F F F"
Ge       0.00000000       0.00000000       0.00000000       0.00000000       0.00000000       0.19187631
Ge       0.00000000       0.00000000       4.88303030       0.00000000       0.00000000      -0.19187631
2
Properties=species:S:1:pos:R:3:forces:R:3 energy=-1.6441137086834399 pbc="F F F"
Ge       0.00000000       0.00000000       0.00000000       0.00000000       0.00000000       0.17746072
Ge       0.00000000       0.00000000       4.94181818       0.00000000       0.00000000      -0.17746072
2
Properties=species:S:1:pos:R:3:forces:R:3 energy=-1.6340611111565455 pbc="F F F"
Ge       0.00000000       0.00000000       0.00000000       0.00000000       0.00000000       0.16474760
Ge       0.00000000       0.00000000       5.00060606       0.00000000       0.00000000      -0.16474760
2
Properties=species:S:1:pos:R:3:forces:R:3 energy=-1.6247270931532878 pbc="F F F"
Ge       0.00000000       0.00000000       0.00000000       0.00000000       0.00000000       0.15285262
Ge       0.00000000       0.00000000       5.05939394       0.00000000       0.00000000      -0.15285262
2
Properties=species:S:1:pos:R:3:forces:R:3 energy=-1.616086678831687 pbc="F F F"
Ge       0.00000000       0.00000000       0.00000000       0.00000000       0.00000000       0.14109963
Ge       0.00000000       0.00000000       5.11818182       0.00000000       0.00000000      -0.14109963
2
Properties=species:S:1:pos:R:3:forces:R:3 energy=-1.6081437216548675 pbc="F F F"
Ge       0.00000000       0.00000000       0.00000000       0.00000000       0.00000000       0.12904988
Ge       0.00000000       0.00000000       5.17696970       0.00000000       0.00000000      -0.12904988
2
Properties=species:S:1:pos:R:3:forces:R:3 energy=-1.6009234607300813 pbc="F F F"
Ge       0.00000000       0.00000000       0.00000000       0.00000000       0.00000000       0.11651312
Ge       0.00000000       0.00000000       5.23575758       0.00000000       0.00000000      -0.11651312
2
Properties=species:S:1:pos:R:3:forces:R:3 energy=-1.5944537994065604 pbc="F F F"
Ge       0.00000000       0.00000000       0.00000000       0.00000000       0.00000000       0.10352374
Ge       0.00000000       0.00000000       5.29454545       0.00000000       0.00000000      -0.10352374
2
Properties=species:S:1:pos:R:3:forces:R:3 energy=-1.5887558556474608 pbc="F F F"
Ge       0.00000000       0.00000000       0.00000000       0.00000000       0.00000000       0.09030414
Ge       0.00000000       0.00000000       5.35333333       0.00000000       0.00000000      -0.09030414
2
Properties=species:S:1:pos:R:3:forces:R:3 energy=-1.5838342082509198 pbc="F F F"
Ge       0.00000000       0.00000000       0.00000000       0.00000000       0.00000000       0.07719858
Ge       0.00000000       0.00000000       5.41212121       0.00000000       0.00000000      -0.07719858
2
Properties=species:S:1:pos:R:3:forces:R:3 energy=-1.5796691688370783 pbc="F F F"
Ge       0.00000000       0.00000000       0.00000000       0.00000000       0.00000000       0.06460174
Ge       0.00000000       0.00000000       5.47090909       0.00000000       0.00000000      -0.06460174
2
Properties=species:S:1:pos:R:3:forces:R:3 energy=-1.5762207854467243 pbc="F F F"
Ge       0.00000000       0.00000000       0.00000000       0.00000000       0.00000000       0.05288254
Ge       0.00000000       0.00000000       5.52969697       0.00000000       0.00000000      -0.05288254
2
Properties=species:S:1:pos:R:3:forces:R:3 energy=-1.5734287407550234 pbc="F F F"
Ge       0.00000000       0.00000000       0.00000000       0.00000000       0.00000000       0.04231805
Ge       0.00000000       0.00000000       5.58848485       0.00000000       0.00000000      -0.04231805
2
Properties=species:S:1:pos:R:3:forces:R:3 energy=-1.571220230972009 pbc="F F F"
Ge       0.00000000       0.00000000       0.00000000       0.00000000       0.00000000       0.03308099
Ge       0.00000000       0.00000000       5.64727273       0.00000000       0.00000000      -0.03308099
2
Properties=species:S:1:pos:R:3:forces:R:3 energy=-1.5695127520057497 pbc="F F F"
Ge       0.00000000       0.00000000       0.00000000       0.00000000       0.00000000       0.02522544
Ge       0.00000000       0.00000000       5.70606061       0.00000000       0.00000000      -0.02522544
2
Properties=species:S:1:pos:R:3:forces:R:3 energy=-1.5682254528552582 pbc="F F F"
Ge       0.00000000       0.00000000       0.00000000       0.00000000       0.00000000       0.01874301
Ge       0.00000000       0.00000000       5.76484848       0.00000000       0.00000000      -0.01874301
2
Properties=species:S:1:pos:R:3:forces:R:3 energy=-1.5672813934593908 pbc="F F F"
Ge       0.00000000       0.00000000       0.00000000       0.00000000       0.00000000       0.01360082
Ge       0.00000000       0.00000000       5.82363636       0.00000000       0.00000000      -0.01360082
2
Properties=species:S:1:pos:R:3:forces:R:3 energy=-1.5666019735384618 pbc="F F F"
Ge       0.00000000       0.00000000       0.00000000       0.00000000       0.00000000       0.00976990
Ge       0.00000000       0.00000000       5.88242424       0.00000000       0.00000000      -0.00976990
2
Properties=species:S:1:pos:R:3:forces:R:3 energy=-1.566107302893399 pbc="F F F"
Ge       0.00000000       0.00000000       0.00000000       0.00000000       0.00000000       0.00726655
Ge       0.00000000       0.00000000       5.94121212       0.00000000       0.00000000      -0.00726655
2
Properties=species:S:1:pos:R:3:forces:R:3 energy=-1.5657198945178552 pbc="F F F"
Ge       0.00000000       0.00000000       0.00000000       0.00000000       0.00000000       0.00616144
Ge       0.00000000       0.00000000       6.00000000       0.00000000       0.00000000      -0.00616144
