2
Properties=species:S:1:pos:R:3:forces:R:3 energy=13590.837951629559 pbc="F F F"
Ho       0.00000000       0.00000000       0.00000000       0.00000000       0.00000000 -235750.18750000
Ho       0.00000000       0.00000000       0.18000000       0.00000000       0.00000000  235750.18750000
2
Properties=species:S:1:pos:R:3:forces:R:3 energy=5320.21978756706 pbc="F F F"
Ho       0.00000000       0.00000000       0.00000000       0.00000000       0.00000000  -78700.68750000
Ho       0.00000000       0.00000000       0.23878788       0.00000000       0.00000000   78700.68750000
2
Properties=species:S:1:pos:R:3:forces:R:3 energy=2344.019836395185 pbc="F F F"
Ho       0.00000000       0.00000000       0.00000000       0.00000000       0.00000000  -30925.19531250
Ho       0.00000000       0.00000000       0.29757576       0.00000000       0.00000000   30925.19531250
2
Properties=species:S:1:pos:R:3:forces:R:3 energy=1118.7055053404972 pbc="F F F"
Ho       0.00000000       0.00000000       0.00000000       0.00000000       0.00000000  -13445.43652344
Ho       0.00000000       0.00000000       0.35636364       0.00000000       0.00000000   13445.43652344
2
Properties=species:S:1:pos:R:3:forces:R:3 energy=568.1837768375435 pbc="F F F"
Ho       0.00000000       0.00000000       0.00000000       0.00000000       0.00000000   -6281.71679688
Ho       0.00000000       0.00000000       0.41515152       0.00000000       0.00000000    6281.71679688
2
Properties=species:S:1:pos:R:3:forces:R:3 energy=304.1421203434029 pbc="F F F"
Ho       0.00000000       0.00000000       0.00000000       0.00000000       0.00000000   -3109.52929688
Ho       0.00000000       0.00000000       0.47393939       0.00000000       0.00000000    3109.52929688
2
Properties=species:S:1:pos:R:3:forces:R:3 energy=170.4425353951367 pbc="F F F"
Ho       0.00000000       0.00000000       0.00000000       0.00000000       0.00000000   -1617.89721680
Ho       0.00000000       0.00000000       0.53272727       0.00000000       0.00000000    1617.89721680
2
Properties=species:S:1:pos:R:3:forces:R:3 energy=99.47049715143632 pbc="F F F"
Ho       0.00000000       0.00000000       0.00000000       0.00000000       0.00000000    -879.35150146
Ho       0.00000000       0.00000000       0.59151515       0.00000000       0.00000000     879.35150146
2
Properties=species:S:1:pos:R:3:forces:R:3 energy=60.21953589841053 pbc="F F F"
Ho       0.00000000       0.00000000       0.00000000       0.00000000       0.00000000    -496.11416626
Ho       0.00000000       0.00000000       0.65030303       0.00000000       0.00000000     496.11416626
2
Properties=species:S:1:pos:R:3:forces:R:3 energy=37.75643552841736 pbc="F F F"
Ho       0.00000000       0.00000000       0.00000000       0.00000000       0.00000000    -288.42803955
Ho       0.00000000       0.00000000       0.70909091       0.00000000       0.00000000     288.42803955
2
Properties=species:S:1:pos:R:3:forces:R:3 energy=24.558931586208573 pbc="F F F"
Ho       0.00000000       0.00000000       0.00000000       0.00000000       0.00000000    -171.30271912
Ho       0.00000000       0.00000000       0.76787879       0.00000000       0.00000000     171.30271912
2
Properties=species:S:1:pos:R:3:forces:R:3 energy=16.673700732868916 pbc="F F F"
Ho       0.00000000       0.00000000       0.00000000       0.00000000       0.00000000    -102.87112427
Ho       0.00000000       0.00000000       0.82666667       0.00000000       0.00000000     102.87112427
2
Properties=species:S:1:pos:R:3:forces:R:3 energy=11.9351574505151 pbc="F F F"
Ho       0.00000000       0.00000000       0.00000000       0.00000000       0.00000000     -61.73403168
Ho       0.00000000       0.00000000       0.88545455       0.00000000       0.00000000      61.73403168
2
Properties=species:S:1:pos:R:3:forces:R:3 energy=9.104603758813427 pbc="F F F"
Ho       0.00000000       0.00000000       0.00000000       0.00000000       0.00000000     -36.61489868
Ho       0.00000000       0.00000000       0.94424242       0.00000000       0.00000000      36.61489868
2
Properties=species:S:1:pos:R:3:forces:R:3 energy=7.437037413361605 pbc="F F F"
Ho       0.00000000       0.00000000       0.00000000       0.00000000       0.00000000     -21.43588638
Ho       0.00000000       0.00000000       1.00303030       0.00000000       0.00000000      21.43588638
2
Properties=species:S:1:pos:R:3:forces:R:3 energy=6.456121019312169 pbc="F F F"
Ho       0.00000000       0.00000000       0.00000000       0.00000000       0.00000000     -12.84061337
Ho       0.00000000       0.00000000       1.06181818       0.00000000       0.00000000      12.84061337
2
Properties=species:S:1:pos:R:3:forces:R:3 energy=5.837260606506769 pbc="F F F"
Ho       0.00000000       0.00000000       0.00000000       0.00000000       0.00000000      -8.86002731
Ho       0.00000000       0.00000000       1.12060606       0.00000000       0.00000000       8.86002731
2
Properties=species:S:1:pos:R:3:forces:R:3 energy=5.3496984869701105 pbc="F F F"
Ho       0.00000000       0.00000000       0.00000000       0.00000000       0.00000000      -8.19096184
Ho       0.00000000       0.00000000       1.17939394       0.00000000       0.00000000       8.19096184
2
Properties=species:S:1:pos:R:3:forces:R:3 energy=4.828638397014738 pbc="F F F"
Ho       0.00000000       0.00000000       0.00000000       0.00000000       0.00000000      -9.85172367
Ho       0.00000000       0.00000000       1.23818182       0.00000000       0.00000000       9.85172367
2
Properties=species:S:1:pos:R:3:forces:R:3 energy=4.16284237187742 pbc="F F F"
Ho       0.00000000       0.00000000       0.00000000       0.00000000       0.00000000     -12.96164131
Ho       0.00000000       0.00000000       1.29696970       0.00000000       0.00000000      12.96164131
2
Properties=species:S:1:pos:R:3:forces:R:3 energy=3.2971621371437716 pbc="F F F"
Ho       0.00000000       0.00000000       0.00000000       0.00000000       0.00000000     -16.44161606
Ho       0.00000000       0.00000000       1.35575758       0.00000000       0.00000000      16.44161606
2
Properties=species:S:1:pos:R:3:forces:R:3 energy=2.248900796815107 pbc="F F F"
Ho       0.00000000       0.00000000       0.00000000       0.00000000       0.00000000     -18.95715141
Ho       0.00000000       0.00000000       1.41454545       0.00000000       0.00000000      18.95715141
2
Properties=species:S:1:pos:R:3:forces:R:3 energy=1.1051837282802428 pbc="F F F"
Ho       0.00000000       0.00000000       0.00000000       0.00000000       0.00000000     -19.62858391
Ho       0.00000000       0.00000000       1.47333333       0.00000000       0.00000000      19.62858391
2
Properties=species:S:1:pos:R:3:forces:R:3 energy=-0.023190093322253025 pbc="F F F"
Ho       0.00000000       0.00000000       0.00000000       0.00000000       0.00000000     -18.45853043
Ho       0.00000000       0.00000000       1.53212121       0.00000000       0.00000000      18.45853043
2
Properties=species:S:1:pos:R:3:forces:R:3 energy=-1.0220765013750817 pbc="F F F"
Ho       0.00000000       0.00000000       0.00000000       0.00000000       0.00000000     -15.05439186
Ho       0.00000000       0.00000000       1.59090909       0.00000000       0.00000000      15.05439186
2
Properties=species:S:1:pos:R:3:forces:R:3 energy=-1.7301962019198567 pbc="F F F"
Ho       0.00000000       0.00000000       0.00000000       0.00000000       0.00000000      -8.54019070
Ho       0.00000000       0.00000000       1.64969697       0.00000000       0.00000000       8.54019070
2
Properties=species:S:1:pos:R:3:forces:R:3 energy=-1.9963905997866087 pbc="F F F"
Ho       0.00000000       0.00000000       0.00000000       0.00000000       0.00000000      -0.59591848
Ho       0.00000000       0.00000000       1.70848485       0.00000000       0.00000000       0.59591848
2
Properties=species:S:1:pos:R:3:forces:R:3 energy=-1.8468003735697969 pbc="F F F"
Ho       0.00000000       0.00000000       0.00000000       0.00000000       0.00000000       5.07314968
Ho       0.00000000       0.00000000       1.76727273       0.00000000       0.00000000      -5.07314968
2
Properties=species:S:1:pos:R:3:forces:R:3 energy=-1.4758102023616542 pbc="F F F"
Ho       0.00000000       0.00000000       0.00000000       0.00000000       0.00000000       6.96716452
Ho       0.00000000       0.00000000       1.82606061       0.00000000       0.00000000      -6.96716452
2
Properties=species:S:1:pos:R:3:forces:R:3 energy=-1.0793184974844192 pbc="F F F"
Ho       0.00000000       0.00000000       0.00000000       0.00000000       0.00000000       6.23289394
Ho       0.00000000       0.00000000       1.88484848       0.00000000       0.00000000      -6.23289394
2
Properties=species:S:1:pos:R:3:forces:R:3 energy=-0.7618312090233323 pbc="F F F"
Ho       0.00000000       0.00000000       0.00000000       0.00000000       0.00000000       4.51010990
Ho       0.00000000       0.00000000       1.94363636       0.00000000       0.00000000      -4.51010990
2
Properties=species:S:1:pos:R:3:forces:R:3 energy=-0.5484860153690437 pbc="F F F"
Ho       0.00000000       0.00000000       0.00000000       0.00000000       0.00000000       2.79312778
Ho       0.00000000       0.00000000       2.00242424       0.00000000       0.00000000      -2.79312778
2
Properties=species:S:1:pos:R:3:forces:R:3 energy=-0.4263802124918453 pbc="F F F"
Ho       0.00000000       0.00000000       0.00000000       0.00000000       0.00000000       1.42429745
Ho       0.00000000       0.00000000       2.06121212       0.00000000       0.00000000      -1.42429745
2
Properties=species:S:1:pos:R:3:forces:R:3 energy=-0.3742787037674663 pbc="F F F"
Ho       0.00000000       0.00000000       0.00000000       0.00000000       0.00000000       0.39774612
Ho       0.00000000       0.00000000       2.12000000       0.00000000       0.00000000      -0.39774612
2
Properties=species:S:1:pos:R:3:forces:R:3 energy=-0.3746675365954878 pbc="F F F"
Ho       0.00000000       0.00000000       0.00000000       0.00000000       0.00000000      -0.37533259
Ho       0.00000000       0.00000000       2.17878788       0.00000000       0.00000000       0.37533259
2
Properties=species:S:1:pos:R:3:forces:R:3 energy=-0.41482618549910666 pbc="F F F"
Ho       0.00000000       0.00000000       0.00000000       0.00000000       0.00000000      -0.96502793
Ho       0.00000000       0.00000000       2.23757576       0.00000000       0.00000000       0.96502793
2
Properties=species:S:1:pos:R:3:forces:R:3 energy=-0.4855571469379364 pbc="F F F"
Ho       0.00000000       0.00000000       0.00000000       0.00000000       0.00000000      -1.42298663
Ho       0.00000000       0.00000000       2.29636364       0.00000000       0.00000000       1.42298663
2
Properties=species:S:1:pos:R:3:forces:R:3 energy=-0.5803234868565786 pbc="F F F"
Ho       0.00000000       0.00000000       0.00000000       0.00000000       0.00000000      -1.78793693
Ho       0.00000000       0.00000000       2.35515152       0.00000000       0.00000000       1.78793693
2
Properties=species:S:1:pos:R:3:forces:R:3 energy=-0.6944091036905558 pbc="F F F"
Ho       0.00000000       0.00000000       0.00000000       0.00000000       0.00000000      -2.08257961
Ho       0.00000000       0.00000000       2.41393939       0.00000000       0.00000000       2.08257961
2
Properties=species:S:1:pos:R:3:forces:R:3 energy=-0.8239301897924568 pbc="F F F"
Ho       0.00000000       0.00000000       0.00000000       0.00000000       0.00000000      -2.31282997
Ho       0.00000000       0.00000000       2.47272727       0.00000000       0.00000000       2.31282997
2
Properties=species:S:1:pos:R:3:forces:R:3 energy=-0.9649712761931003 pbc="F F F"
Ho       0.00000000       0.00000000       0.00000000       0.00000000       0.00000000      -2.47303629
Ho       0.00000000       0.00000000       2.53151515       0.00000000       0.00000000       2.47303629
2
Properties=species:S:1:pos:R:3:forces:R:3 energy=-1.113161173232439 pbc="F F F"
Ho       0.00000000       0.00000000       0.00000000       0.00000000       0.00000000      -2.55491829
Ho       0.00000000       0.00000000       2.59030303       0.00000000       0.00000000       2.55491829
2
Properties=species:S:1:pos:R:3:forces:R:3 energy=-1.263770885983733 pbc="F F F"
Ho       0.00000000       0.00000000       0.00000000       0.00000000       0.00000000      -2.55563354
Ho       0.00000000       0.00000000       2.64909091       0.00000000       0.00000000       2.55563354
2
Properties=species:S:1:pos:R:3:forces:R:3 energy=-1.4121549472183519 pbc="F F F"
Ho       0.00000000       0.00000000       0.00000000       0.00000000       0.00000000      -2.48071504
Ho       0.00000000       0.00000000       2.70787879       0.00000000       0.00000000       2.48071504
2
Properties=species:S:1:pos:R:3:forces:R:3 energy=-1.5541785278671478 pbc="F F F"
Ho       0.00000000       0.00000000       0.00000000       0.00000000       0.00000000      -2.34126115
Ho       0.00000000       0.00000000       2.76666667       0.00000000       0.00000000       2.34126115
2
Properties=species:S:1:pos:R:3:forces:R:3 energy=-1.6863941216106575 pbc="F F F"
Ho       0.00000000       0.00000000       0.00000000       0.00000000       0.00000000      -2.14888239
Ho       0.00000000       0.00000000       2.82545455       0.00000000       0.00000000       2.14888239
2
Properties=species:S:1:pos:R:3:forces:R:3 energy=-1.8059756526522492 pbc="F F F"
Ho       0.00000000       0.00000000       0.00000000       0.00000000       0.00000000      -1.91261661
Ho       0.00000000       0.00000000       2.88424242       0.00000000       0.00000000       1.91261661
2
Properties=species:S:1:pos:R:3:forces:R:3 energy=-1.910546839683747 pbc="F F F"
Ho       0.00000000       0.00000000       0.00000000       0.00000000       0.00000000      -1.63935900
Ho       0.00000000       0.00000000       2.94303030       0.00000000       0.00000000       1.63935900
2
Properties=species:S:1:pos:R:3:forces:R:3 energy=-1.9981409284881404 pbc="F F F"
Ho       0.00000000       0.00000000       0.00000000       0.00000000       0.00000000      -1.33641994
Ho       0.00000000       0.00000000       3.00181818       0.00000000       0.00000000       1.33641994
2
Properties=species:S:1:pos:R:3:forces:R:3 energy=-2.067289634740877 pbc="F F F"
Ho       0.00000000       0.00000000       0.00000000       0.00000000       0.00000000      -1.01376653
Ho       0.00000000       0.00000000       3.06060606       0.00000000       0.00000000       1.01376653
2
Properties=species:S:1:pos:R:3:forces:R:3 energy=-2.1172006137958297 pbc="F F F"
Ho       0.00000000       0.00000000       0.00000000       0.00000000       0.00000000      -0.68425846
Ho       0.00000000       0.00000000       3.11939394       0.00000000       0.00000000       0.68425846
2
Properties=species:S:1:pos:R:3:forces:R:3 energy=-2.147882356342786 pbc="F F F"
Ho       0.00000000       0.00000000       0.00000000       0.00000000       0.00000000      -0.36187938
Ho       0.00000000       0.00000000       3.17818182       0.00000000       0.00000000       0.36187938
2
Properties=species:S:1:pos:R:3:forces:R:3 energy=-2.1601388164858206 pbc="F F F"
Ho       0.00000000       0.00000000       0.00000000       0.00000000       0.00000000      -0.05929245
Ho       0.00000000       0.00000000       3.23696970       0.00000000       0.00000000       0.05929245
2
Properties=species:S:1:pos:R:3:forces:R:3 energy=-2.155433036316049 pbc="F F F"
Ho       0.00000000       0.00000000       0.00000000       0.00000000       0.00000000       0.21384215
Ho       0.00000000       0.00000000       3.29575758       0.00000000       0.00000000      -0.21384215
2
Properties=species:S:1:pos:R:3:forces:R:3 energy=-2.13569979959361 pbc="F F F"
Ho       0.00000000       0.00000000       0.00000000       0.00000000       0.00000000       0.45115271
Ho       0.00000000       0.00000000       3.35454545       0.00000000       0.00000000      -0.45115271
2
Properties=species:S:1:pos:R:3:forces:R:3 energy=-2.1031641445238103 pbc="F F F"
Ho       0.00000000       0.00000000       0.00000000       0.00000000       0.00000000       0.64893800
Ho       0.00000000       0.00000000       3.41333333       0.00000000       0.00000000      -0.64893800
2
Properties=species:S:1:pos:R:3:forces:R:3 energy=-2.0602101091616443 pbc="F F F"
Ho       0.00000000       0.00000000       0.00000000       0.00000000       0.00000000       0.80544531
Ho       0.00000000       0.00000000       3.47212121       0.00000000       0.00000000      -0.80544531
2
Properties=species:S:1:pos:R:3:forces:R:3 energy=-2.00927759520144 pbc="F F F"
Ho       0.00000000       0.00000000       0.00000000       0.00000000       0.00000000       0.92049265
Ho       0.00000000       0.00000000       3.53090909       0.00000000       0.00000000      -0.92049265
2
Properties=species:S:1:pos:R:3:forces:R:3 energy=-1.9527676421091351 pbc="F F F"
Ho       0.00000000       0.00000000       0.00000000       0.00000000       0.00000000       0.99553525
Ho       0.00000000       0.00000000       3.58969697       0.00000000       0.00000000      -0.99553525
2
Properties=species:S:1:pos:R:3:forces:R:3 energy=-1.8929453020615563 pbc="F F F"
Ho       0.00000000       0.00000000       0.00000000       0.00000000       0.00000000       1.03395283
Ho       0.00000000       0.00000000       3.64848485       0.00000000       0.00000000      -1.03395283
2
Properties=species:S:1:pos:R:3:forces:R:3 energy=-1.8318104677617055 pbc="F F F"
Ho       0.00000000       0.00000000       0.00000000       0.00000000       0.00000000       1.04130900
Ho       0.00000000       0.00000000       3.70727273       0.00000000       0.00000000      -1.04130900
2
Properties=species:S:1:pos:R:3:forces:R:3 energy=-1.7709712341593886 pbc="F F F"
Ho       0.00000000       0.00000000       0.00000000       0.00000000       0.00000000       1.02528358
Ho       0.00000000       0.00000000       3.76606061       0.00000000       0.00000000      -1.02528358
2
Properties=species:S:1:pos:R:3:forces:R:3 energy=-1.711542621240252 pbc="F F F"
Ho       0.00000000       0.00000000       0.00000000       0.00000000       0.00000000       0.99492729
Ho       0.00000000       0.00000000       3.82484848       0.00000000       0.00000000      -0.99492729
2
Properties=species:S:1:pos:R:3:forces:R:3 energy=-1.654095841553589 pbc="F F F"
Ho       0.00000000       0.00000000       0.00000000       0.00000000       0.00000000       0.95920658
Ho       0.00000000       0.00000000       3.88363636       0.00000000       0.00000000      -0.95920658
2
Properties=species:S:1:pos:R:3:forces:R:3 energy=-1.5987254835664912 pbc="F F F"
Ho       0.00000000       0.00000000       0.00000000       0.00000000       0.00000000       0.92528033
Ho       0.00000000       0.00000000       3.94242424       0.00000000       0.00000000      -0.92528033
2
Properties=species:S:1:pos:R:3:forces:R:3 energy=-1.5451889496867108 pbc="F F F"
Ho       0.00000000       0.00000000       0.00000000       0.00000000       0.00000000       0.89721221
Ho       0.00000000       0.00000000       4.00121212       0.00000000       0.00000000      -0.89721221
2
Properties=species:S:1:pos:R:3:forces:R:3 energy=-1.4931064019194566 pbc="F F F"
Ho       0.00000000       0.00000000       0.00000000       0.00000000       0.00000000       0.87564403
Ho       0.00000000       0.00000000       4.06000000       0.00000000       0.00000000      -0.87564403
2
Properties=species:S:1:pos:R:3:forces:R:3 energy=-1.4421479331232785 pbc="F F F"
Ho       0.00000000       0.00000000       0.00000000       0.00000000       0.00000000       0.85846329
Ho       0.00000000       0.00000000       4.11878788       0.00000000       0.00000000      -0.85846329
2
Properties=species:S:1:pos:R:3:forces:R:3 energy=-1.3921559390975897 pbc="F F F"
Ho       0.00000000       0.00000000       0.00000000       0.00000000       0.00000000       0.84207553
Ho       0.00000000       0.00000000       4.17757576       0.00000000       0.00000000      -0.84207553
2
Properties=species:S:1:pos:R:3:forces:R:3 energy=-1.3431977215575799 pbc="F F F"
Ho       0.00000000       0.00000000       0.00000000       0.00000000       0.00000000       0.82271785
Ho       0.00000000       0.00000000       4.23636364       0.00000000       0.00000000      -0.82271785
2
Properties=species:S:1:pos:R:3:forces:R:3 energy=-1.2955395068447368 pbc="F F F"
Ho       0.00000000       0.00000000       0.00000000       0.00000000       0.00000000       0.79747671
Ho       0.00000000       0.00000000       4.29515152       0.00000000       0.00000000      -0.79747671
2
Properties=species:S:1:pos:R:3:forces:R:3 energy=-1.2495798091019408 pbc="F F F"
Ho       0.00000000       0.00000000       0.00000000       0.00000000       0.00000000       0.76488745
Ho       0.00000000       0.00000000       4.35393939       0.00000000       0.00000000      -0.76488745
2
Properties=species:S:1:pos:R:3:forces:R:3 energy=-1.205750574094204 pbc="F F F"
Ho       0.00000000       0.00000000       0.00000000       0.00000000       0.00000000       0.72509760
Ho       0.00000000       0.00000000       4.41272727       0.00000000       0.00000000      -0.72509760
2
Properties=species:S:1:pos:R:3:forces:R:3 energy=-1.1644349069599016 pbc="F F F"
Ho       0.00000000       0.00000000       0.00000000       0.00000000       0.00000000       0.67974651
Ho       0.00000000       0.00000000       4.47151515       0.00000000       0.00000000      -0.67974651
2
Properties=species:S:1:pos:R:3:forces:R:3 energy=-1.125883989671597 pbc="F F F"
Ho       0.00000000       0.00000000       0.00000000       0.00000000       0.00000000       0.63155758
Ho       0.00000000       0.00000000       4.53030303       0.00000000       0.00000000      -0.63155758
2
Properties=species:S:1:pos:R:3:forces:R:3 energy=-1.0901709913904971 pbc="F F F"
Ho       0.00000000       0.00000000       0.00000000       0.00000000       0.00000000       0.58379918
Ho       0.00000000       0.00000000       4.58909091       0.00000000       0.00000000      -0.58379918
2
Properties=species:S:1:pos:R:3:forces:R:3 energy=-1.0571725325898793 pbc="F F F"
Ho       0.00000000       0.00000000       0.00000000       0.00000000       0.00000000       0.53969330
Ho       0.00000000       0.00000000       4.64787879       0.00000000       0.00000000      -0.53969330
2
Properties=species:S:1:pos:R:3:forces:R:3 energy=-1.0265920362366021 pbc="F F F"
Ho       0.00000000       0.00000000       0.00000000       0.00000000       0.00000000       0.50186282
Ho       0.00000000       0.00000000       4.70666667       0.00000000       0.00000000      -0.50186282
2
Properties=species:S:1:pos:R:3:forces:R:3 energy=-0.9980094429845981 pbc="F F F"
Ho       0.00000000       0.00000000       0.00000000       0.00000000       0.00000000       0.47195733
Ho       0.00000000       0.00000000       4.76545455       0.00000000       0.00000000      -0.47195733
2
Properties=species:S:1:pos:R:3:forces:R:3 energy=-0.970935639135045 pbc="F F F"
Ho       0.00000000       0.00000000       0.00000000       0.00000000       0.00000000       0.45041543
Ho       0.00000000       0.00000000       4.82424242       0.00000000       0.00000000      -0.45041543
2
Properties=species:S:1:pos:R:3:forces:R:3 energy=-0.9449036834210929 pbc="F F F"
Ho       0.00000000       0.00000000       0.00000000       0.00000000       0.00000000       0.43643156
Ho       0.00000000       0.00000000       4.88303030       0.00000000       0.00000000      -0.43643156
2
Properties=species:S:1:pos:R:3:forces:R:3 energy=-0.9195117439428816 pbc="F F F"
Ho       0.00000000       0.00000000       0.00000000       0.00000000       0.00000000       0.42808720
Ho       0.00000000       0.00000000       4.94181818       0.00000000       0.00000000      -0.42808720
2
Properties=species:S:1:pos:R:3:forces:R:3 energy=-0.894511717603033 pbc="F F F"
Ho       0.00000000       0.00000000       0.00000000       0.00000000       0.00000000       0.42269278
Ho       0.00000000       0.00000000       5.00060606       0.00000000       0.00000000      -0.42269278
2
Properties=species:S:1:pos:R:3:forces:R:3 energy=-0.8698132400409384 pbc="F F F"
Ho       0.00000000       0.00000000       0.00000000       0.00000000       0.00000000       0.41725224
Ho       0.00000000       0.00000000       5.05939394       0.00000000       0.00000000      -0.41725224
2
Properties=species:S:1:pos:R:3:forces:R:3 energy=-0.8455085954545232 pbc="F F F"
Ho       0.00000000       0.00000000       0.00000000       0.00000000       0.00000000       0.40898812
Ho       0.00000000       0.00000000       5.11818182       0.00000000       0.00000000      -0.40898812
2
Properties=species:S:1:pos:R:3:forces:R:3 energy=-0.8218244685162015 pbc="F F F"
Ho       0.00000000       0.00000000       0.00000000       0.00000000       0.00000000       0.39582193
Ho       0.00000000       0.00000000       5.17696970       0.00000000       0.00000000      -0.39582193
2
Properties=species:S:1:pos:R:3:forces:R:3 energy=-0.7990890641997385 pbc="F F F"
Ho       0.00000000       0.00000000       0.00000000       0.00000000       0.00000000       0.37664551
Ho       0.00000000       0.00000000       5.23575758       0.00000000       0.00000000      -0.37664551
2
Properties=species:S:1:pos:R:3:forces:R:3 energy=-0.777660906988215 pbc="F F F"
Ho       0.00000000       0.00000000       0.00000000       0.00000000       0.00000000       0.35137427
Ho       0.00000000       0.00000000       5.29454545       0.00000000       0.00000000      -0.35137427
2
Properties=species:S:1:pos:R:3:forces:R:3 energy=-0.7578795858466645 pbc="F F F"
Ho       0.00000000       0.00000000       0.00000000       0.00000000       0.00000000       0.32080013
Ho       0.00000000       0.00000000       5.35333333       0.00000000       0.00000000      -0.32080013
2
Properties=species:S:1:pos:R:3:forces:R:3 energy=-0.7400197598591327 pbc="F F F"
Ho       0.00000000       0.00000000       0.00000000       0.00000000       0.00000000       0.28633705
Ho       0.00000000       0.00000000       5.41212121       0.00000000       0.00000000      -0.28633705
2
Properties=species:S:1:pos:R:3:forces:R:3 energy=-0.7242565863667567 pbc="F F F"
Ho       0.00000000       0.00000000       0.00000000       0.00000000       0.00000000       0.24967074
Ho       0.00000000       0.00000000       5.47090909       0.00000000       0.00000000      -0.24967074
2
Properties=species:S:1:pos:R:3:forces:R:3 energy=-0.7106715812298849 pbc="F F F"
Ho       0.00000000       0.00000000       0.00000000       0.00000000       0.00000000       0.21252929
Ho       0.00000000       0.00000000       5.52969697       0.00000000       0.00000000      -0.21252929
2
Properties=species:S:1:pos:R:3:forces:R:3 energy=-0.6992477643413217 pbc="F F F"
Ho       0.00000000       0.00000000       0.00000000       0.00000000       0.00000000       0.17642435
Ho       0.00000000       0.00000000       5.58848485       0.00000000       0.00000000      -0.17642435
2
Properties=species:S:1:pos:R:3:forces:R:3 energy=-0.6898874586563839 pbc="F F F"
Ho       0.00000000       0.00000000       0.00000000       0.00000000       0.00000000       0.14264676
Ho       0.00000000       0.00000000       5.64727273       0.00000000       0.00000000      -0.14264676
2
Properties=species:S:1:pos:R:3:forces:R:3 energy=-0.6824136979456441 pbc="F F F"
Ho       0.00000000       0.00000000       0.00000000       0.00000000       0.00000000       0.11217218
Ho       0.00000000       0.00000000       5.70606061       0.00000000       0.00000000      -0.11217218
2
Properties=species:S:1:pos:R:3:forces:R:3 energy=-0.6766098981457742 pbc="F F F"
Ho       0.00000000       0.00000000       0.00000000       0.00000000       0.00000000       0.08577728
Ho       0.00000000       0.00000000       5.76484848       0.00000000       0.00000000      -0.08577728
2
Properties=species:S:1:pos:R:3:forces:R:3 energy=-0.6722298139190691 pbc="F F F"
Ho       0.00000000       0.00000000       0.00000000       0.00000000       0.00000000       0.06412532
Ho       0.00000000       0.00000000       5.82363636       0.00000000       0.00000000      -0.06412532
2
Properties=species:S:1:pos:R:3:forces:R:3 energy=-0.668973372261783 pbc="F F F"
Ho       0.00000000       0.00000000       0.00000000       0.00000000       0.00000000       0.04775508
Ho       0.00000000       0.00000000       5.88242424       0.00000000       0.00000000      -0.04775508
2
Properties=species:S:1:pos:R:3:forces:R:3 energy=-0.6665025881122371 pbc="F F F"
Ho       0.00000000       0.00000000       0.00000000       0.00000000       0.00000000       0.03723304
Ho       0.00000000       0.00000000       5.94121212       0.00000000       0.00000000      -0.03723304
2
Properties=species:S:1:pos:R:3:forces:R:3 energy=-0.6644688583583755 pbc="F F F"
Ho       0.00000000       0.00000000       0.00000000       0.00000000       0.00000000       0.03309826
Ho       0.00000000       0.00000000       6.00000000       0.00000000       0.00000000      -0.03309826
