2
Properties=species:S:1:pos:R:3:forces:R:3 energy=9957.242377833047 pbc="F F F"
I        0.00000000       0.00000000       0.00000000       0.00000000       0.00000000 -165978.93750000
I        0.00000000       0.00000000       0.18000000       0.00000000       0.00000000  165978.93750000
2
Properties=species:S:1:pos:R:3:forces:R:3 energy=4076.7577586924217 pbc="F F F"
I        0.00000000       0.00000000       0.00000000       0.00000000       0.00000000  -56746.73046875
I        0.00000000       0.00000000       0.23878788       0.00000000       0.00000000   56746.73046875
2
Properties=species:S:1:pos:R:3:forces:R:3 energy=1908.565253809609 pbc="F F F"
I        0.00000000       0.00000000       0.00000000       0.00000000       0.00000000  -22849.51171875
I        0.00000000       0.00000000       0.29757576       0.00000000       0.00000000   22849.51171875
2
Properties=species:S:1:pos:R:3:forces:R:3 energy=993.8227611401634 pbc="F F F"
I        0.00000000       0.00000000       0.00000000       0.00000000       0.00000000  -10168.59375000
I        0.00000000       0.00000000       0.35636364       0.00000000       0.00000000   10168.59375000
2
Properties=species:S:1:pos:R:3:forces:R:3 energy=574.0343700332178 pbc="F F F"
I        0.00000000       0.00000000       0.00000000       0.00000000       0.00000000   -4831.77587891
I        0.00000000       0.00000000       0.41515152       0.00000000       0.00000000    4831.77587891
2
Properties=species:S:1:pos:R:3:forces:R:3 energy=370.4405895346466 pbc="F F F"
I        0.00000000       0.00000000       0.00000000       0.00000000       0.00000000   -2395.59130859
I        0.00000000       0.00000000       0.47393939       0.00000000       0.00000000    2395.59130859
2
Properties=species:S:1:pos:R:3:forces:R:3 energy=268.3776318089886 pbc="F F F"
I        0.00000000       0.00000000       0.00000000       0.00000000       0.00000000   -1212.67272949
I        0.00000000       0.00000000       0.53272727       0.00000000       0.00000000    1212.67272949
2
Properties=species:S:1:pos:R:3:forces:R:3 energy=216.61263247636094 pbc="F F F"
I        0.00000000       0.00000000       0.00000000       0.00000000       0.00000000    -615.34521484
I        0.00000000       0.00000000       0.59151515       0.00000000       0.00000000     615.34521484
2
Properties=species:S:1:pos:R:3:forces:R:3 energy=190.18392163706343 pbc="F F F"
I        0.00000000       0.00000000       0.00000000       0.00000000       0.00000000    -321.16726685
I        0.00000000       0.00000000       0.65030303       0.00000000       0.00000000     321.16726685
2
Properties=species:S:1:pos:R:3:forces:R:3 energy=175.3598403713883 pbc="F F F"
I        0.00000000       0.00000000       0.00000000       0.00000000       0.00000000    -206.82502747
I        0.00000000       0.00000000       0.70909091       0.00000000       0.00000000     206.82502747
2
Properties=species:S:1:pos:R:3:forces:R:3 energy=163.67787954623682 pbc="F F F"
I        0.00000000       0.00000000       0.00000000       0.00000000       0.00000000    -204.01197815
I        0.00000000       0.00000000       0.76787879       0.00000000       0.00000000     204.01197815
2
Properties=species:S:1:pos:R:3:forces:R:3 energy=150.0921560145763 pbc="F F F"
I        0.00000000       0.00000000       0.00000000       0.00000000       0.00000000    -273.96697998
I        0.00000000       0.00000000       0.82666667       0.00000000       0.00000000     273.96697998
2
Properties=species:S:1:pos:R:3:forces:R:3 energy=132.06720838863936 pbc="F F F"
I        0.00000000       0.00000000       0.00000000       0.00000000       0.00000000    -326.80612183
I        0.00000000       0.00000000       0.88545455       0.00000000       0.00000000     326.80612183
2
Properties=species:S:1:pos:R:3:forces:R:3 energy=113.17181571081039 pbc="F F F"
I        0.00000000       0.00000000       0.00000000       0.00000000       0.00000000    -282.73019409
I        0.00000000       0.00000000       0.94424242       0.00000000       0.00000000     282.73019409
2
Properties=species:S:1:pos:R:3:forces:R:3 energy=101.23854334889516 pbc="F F F"
I        0.00000000       0.00000000       0.00000000       0.00000000       0.00000000    -165.95195007
I        0.00000000       0.00000000       1.00303030       0.00000000       0.00000000     165.95195007
2
Properties=species:S:1:pos:R:3:forces:R:3 energy=93.88913362745659 pbc="F F F"
I        0.00000000       0.00000000       0.00000000       0.00000000       0.00000000     -65.10213470
I        0.00000000       0.00000000       1.06181818       0.00000000       0.00000000      65.10213470
2
Properties=species:S:1:pos:R:3:forces:R:3 energy=88.9515514147407 pbc="F F F"
I        0.00000000       0.00000000       0.00000000       0.00000000       0.00000000    -116.58966827
I        0.00000000       0.00000000       1.12060606       0.00000000       0.00000000     116.58966827
2
Properties=species:S:1:pos:R:3:forces:R:3 energy=80.56982453158223 pbc="F F F"
I        0.00000000       0.00000000       0.00000000       0.00000000       0.00000000    -162.85089111
I        0.00000000       0.00000000       1.17939394       0.00000000       0.00000000     162.85089111
2
Properties=species:S:1:pos:R:3:forces:R:3 energy=70.35703598410058 pbc="F F F"
I        0.00000000       0.00000000       0.00000000       0.00000000       0.00000000    -180.75953674
I        0.00000000       0.00000000       1.23818182       0.00000000       0.00000000     180.75953674
2
Properties=species:S:1:pos:R:3:forces:R:3 energy=59.68881535573569 pbc="F F F"
I        0.00000000       0.00000000       0.00000000       0.00000000       0.00000000    -179.57241821
I        0.00000000       0.00000000       1.29696970       0.00000000       0.00000000     179.57241821
2
Properties=species:S:1:pos:R:3:forces:R:3 energy=49.49614731145246 pbc="F F F"
I        0.00000000       0.00000000       0.00000000       0.00000000       0.00000000    -165.61643982
I        0.00000000       0.00000000       1.35575758       0.00000000       0.00000000     165.61643982
2
Properties=species:S:1:pos:R:3:forces:R:3 energy=40.319036790551756 pbc="F F F"
I        0.00000000       0.00000000       0.00000000       0.00000000       0.00000000    -146.16276550
I        0.00000000       0.00000000       1.41454545       0.00000000       0.00000000     146.16276550
2
Properties=species:S:1:pos:R:3:forces:R:3 energy=32.36668201916364 pbc="F F F"
I        0.00000000       0.00000000       0.00000000       0.00000000       0.00000000    -123.89919281
I        0.00000000       0.00000000       1.47333333       0.00000000       0.00000000     123.89919281
2
Properties=species:S:1:pos:R:3:forces:R:3 energy=25.76403750602493 pbc="F F F"
I        0.00000000       0.00000000       0.00000000       0.00000000       0.00000000    -101.12622070
I        0.00000000       0.00000000       1.53212121       0.00000000       0.00000000     101.12622070
2
Properties=species:S:1:pos:R:3:forces:R:3 energy=20.386393462735263 pbc="F F F"
I        0.00000000       0.00000000       0.00000000       0.00000000       0.00000000     -82.75885773
I        0.00000000       0.00000000       1.59090909       0.00000000       0.00000000      82.75885773
2
Properties=species:S:1:pos:R:3:forces:R:3 energy=15.934565457567677 pbc="F F F"
I        0.00000000       0.00000000       0.00000000       0.00000000       0.00000000     -69.35018158
I        0.00000000       0.00000000       1.64969697       0.00000000       0.00000000      69.35018158
2
Properties=species:S:1:pos:R:3:forces:R:3 energy=12.180341529932559 pbc="F F F"
I        0.00000000       0.00000000       0.00000000       0.00000000       0.00000000     -58.64277649
I        0.00000000       0.00000000       1.70848485       0.00000000       0.00000000      58.64277649
2
Properties=species:S:1:pos:R:3:forces:R:3 energy=9.018326809415191 pbc="F F F"
I        0.00000000       0.00000000       0.00000000       0.00000000       0.00000000     -49.06632614
I        0.00000000       0.00000000       1.76727273       0.00000000       0.00000000      49.06632614
2
Properties=species:S:1:pos:R:3:forces:R:3 energy=6.396310985563359 pbc="F F F"
I        0.00000000       0.00000000       0.00000000       0.00000000       0.00000000     -40.26468277
I        0.00000000       0.00000000       1.82606061       0.00000000       0.00000000      40.26468277
2
Properties=species:S:1:pos:R:3:forces:R:3 energy=4.268588906156873 pbc="F F F"
I        0.00000000       0.00000000       0.00000000       0.00000000       0.00000000     -32.26054764
I        0.00000000       0.00000000       1.88484848       0.00000000       0.00000000      32.26054764
2
Properties=species:S:1:pos:R:3:forces:R:3 energy=2.5853015859523065 pbc="F F F"
I        0.00000000       0.00000000       0.00000000       0.00000000       0.00000000     -25.17799759
I        0.00000000       0.00000000       1.94363636       0.00000000       0.00000000      25.17799759
2
Properties=species:S:1:pos:R:3:forces:R:3 energy=1.2856620452735896 pbc="F F F"
I        0.00000000       0.00000000       0.00000000       0.00000000       0.00000000     -19.24391556
I        0.00000000       0.00000000       2.00242424       0.00000000       0.00000000      19.24391556
2
Properties=species:S:1:pos:R:3:forces:R:3 energy=0.2980185369488232 pbc="F F F"
I        0.00000000       0.00000000       0.00000000       0.00000000       0.00000000     -14.55937195
I        0.00000000       0.00000000       2.06121212       0.00000000       0.00000000      14.55937195
2
Properties=species:S:1:pos:R:3:forces:R:3 energy=-0.4481025112308816 pbc="F F F"
I        0.00000000       0.00000000       0.00000000       0.00000000       0.00000000     -10.99130344
I        0.00000000       0.00000000       2.12000000       0.00000000       0.00000000      10.99130344
2
Properties=species:S:1:pos:R:3:forces:R:3 energy=-1.011536208930926 pbc="F F F"
I        0.00000000       0.00000000       0.00000000       0.00000000       0.00000000      -8.30466080
I        0.00000000       0.00000000       2.17878788       0.00000000       0.00000000       8.30466080
2
Properties=species:S:1:pos:R:3:forces:R:3 energy=-1.437671761528522 pbc="F F F"
I        0.00000000       0.00000000       0.00000000       0.00000000       0.00000000      -6.29032469
I        0.00000000       0.00000000       2.23757576       0.00000000       0.00000000       6.29032469
2
Properties=species:S:1:pos:R:3:forces:R:3 energy=-1.7610924539444464 pbc="F F F"
I        0.00000000       0.00000000       0.00000000       0.00000000       0.00000000      -4.78539467
I        0.00000000       0.00000000       2.29636364       0.00000000       0.00000000       4.78539467
2
Properties=species:S:1:pos:R:3:forces:R:3 energy=-2.0075268552512093 pbc="F F F"
I        0.00000000       0.00000000       0.00000000       0.00000000       0.00000000      -3.64862418
I        0.00000000       0.00000000       2.35515152       0.00000000       0.00000000       3.64862418
2
Properties=species:S:1:pos:R:3:forces:R:3 energy=-2.194758047887278 pbc="F F F"
I        0.00000000       0.00000000       0.00000000       0.00000000       0.00000000      -2.75134659
I        0.00000000       0.00000000       2.41393939       0.00000000       0.00000000       2.75134659
2
Properties=species:S:1:pos:R:3:forces:R:3 energy=-2.333687475283712 pbc="F F F"
I        0.00000000       0.00000000       0.00000000       0.00000000       0.00000000      -1.99165154
I        0.00000000       0.00000000       2.47272727       0.00000000       0.00000000       1.99165154
2
Properties=species:S:1:pos:R:3:forces:R:3 energy=-2.430414098425664 pbc="F F F"
I        0.00000000       0.00000000       0.00000000       0.00000000       0.00000000      -1.30927515
I        0.00000000       0.00000000       2.53151515       0.00000000       0.00000000       1.30927515
2
Properties=species:S:1:pos:R:3:forces:R:3 energy=-2.488742110977773 pbc="F F F"
I        0.00000000       0.00000000       0.00000000       0.00000000       0.00000000      -0.68470317
I        0.00000000       0.00000000       2.59030303       0.00000000       0.00000000       0.68470317
2
Properties=species:S:1:pos:R:3:forces:R:3 energy=-2.5121575548498454 pbc="F F F"
I        0.00000000       0.00000000       0.00000000       0.00000000       0.00000000      -0.12348018
I        0.00000000       0.00000000       2.64909091       0.00000000       0.00000000       0.12348018
2
Properties=species:S:1:pos:R:3:forces:R:3 energy=-2.504730747190047 pbc="F F F"
I        0.00000000       0.00000000       0.00000000       0.00000000       0.00000000       0.36295635
I        0.00000000       0.00000000       2.70787879       0.00000000       0.00000000      -0.36295635
2
Properties=species:S:1:pos:R:3:forces:R:3 energy=-2.4710515739153003 pbc="F F F"
I        0.00000000       0.00000000       0.00000000       0.00000000       0.00000000       0.76963210
I        0.00000000       0.00000000       2.76666667       0.00000000       0.00000000      -0.76963210
2
Properties=species:S:1:pos:R:3:forces:R:3 energy=-2.415730838421044 pbc="F F F"
I        0.00000000       0.00000000       0.00000000       0.00000000       0.00000000       1.10040319
I        0.00000000       0.00000000       2.82545455       0.00000000       0.00000000      -1.10040319
2
Properties=species:S:1:pos:R:3:forces:R:3 energy=-2.3429968510097536 pbc="F F F"
I        0.00000000       0.00000000       0.00000000       0.00000000       0.00000000       1.36343849
I        0.00000000       0.00000000       2.88424242       0.00000000       0.00000000      -1.36343849
2
Properties=species:S:1:pos:R:3:forces:R:3 energy=-2.2566173678130825 pbc="F F F"
I        0.00000000       0.00000000       0.00000000       0.00000000       0.00000000       1.56538057
I        0.00000000       0.00000000       2.94303030       0.00000000       0.00000000      -1.56538057
2
Properties=species:S:1:pos:R:3:forces:R:3 energy=-2.160093345901124 pbc="F F F"
I        0.00000000       0.00000000       0.00000000       0.00000000       0.00000000       1.70871544
I        0.00000000       0.00000000       3.00181818       0.00000000       0.00000000      -1.70871544
2
Properties=species:S:1:pos:R:3:forces:R:3 energy=-2.0568635982901173 pbc="F F F"
I        0.00000000       0.00000000       0.00000000       0.00000000       0.00000000       1.79349208
I        0.00000000       0.00000000       3.06060606       0.00000000       0.00000000      -1.79349208
2
Properties=species:S:1:pos:R:3:forces:R:3 energy=-1.9503447995784557 pbc="F F F"
I        0.00000000       0.00000000       0.00000000       0.00000000       0.00000000       1.82112241
I        0.00000000       0.00000000       3.11939394       0.00000000       0.00000000      -1.82112241
2
Properties=species:S:1:pos:R:3:forces:R:3 energy=-1.8437586594832507 pbc="F F F"
I        0.00000000       0.00000000       0.00000000       0.00000000       0.00000000       1.79707861
I        0.00000000       0.00000000       3.17818182       0.00000000       0.00000000      -1.79707861
2
Properties=species:S:1:pos:R:3:forces:R:3 energy=-1.7398796177948905 pbc="F F F"
I        0.00000000       0.00000000       0.00000000       0.00000000       0.00000000       1.73088431
I        0.00000000       0.00000000       3.23696970       0.00000000       0.00000000      -1.73088431
2
Properties=species:S:1:pos:R:3:forces:R:3 energy=-1.640845849799737 pbc="F F F"
I        0.00000000       0.00000000       0.00000000       0.00000000       0.00000000       1.63419235
I        0.00000000       0.00000000       3.29575758       0.00000000       0.00000000      -1.63419235
2
Properties=species:S:1:pos:R:3:forces:R:3 energy=-1.5481073072050253 pbc="F F F"
I        0.00000000       0.00000000       0.00000000       0.00000000       0.00000000       1.51857960
I        0.00000000       0.00000000       3.35454545       0.00000000       0.00000000      -1.51857960
2
Properties=species:S:1:pos:R:3:forces:R:3 energy=-1.4624701812203318 pbc="F F F"
I        0.00000000       0.00000000       0.00000000       0.00000000       0.00000000       1.39412272
I        0.00000000       0.00000000       3.41333333       0.00000000       0.00000000      -1.39412272
2
Properties=species:S:1:pos:R:3:forces:R:3 energy=-1.384205590456159 pbc="F F F"
I        0.00000000       0.00000000       0.00000000       0.00000000       0.00000000       1.26892126
I        0.00000000       0.00000000       3.47212121       0.00000000       0.00000000      -1.26892126
2
Properties=species:S:1:pos:R:3:forces:R:3 energy=-1.3131667451771833 pbc="F F F"
I        0.00000000       0.00000000       0.00000000       0.00000000       0.00000000       1.14925182
I        0.00000000       0.00000000       3.53090909       0.00000000       0.00000000      -1.14925182
2
Properties=species:S:1:pos:R:3:forces:R:3 energy=-1.2488784572708949 pbc="F F F"
I        0.00000000       0.00000000       0.00000000       0.00000000       0.00000000       1.03990602
I        0.00000000       0.00000000       3.58969697       0.00000000       0.00000000      -1.03990602
2
Properties=species:S:1:pos:R:3:forces:R:3 energy=-1.1906300765665108 pbc="F F F"
I        0.00000000       0.00000000       0.00000000       0.00000000       0.00000000       0.94420308
I        0.00000000       0.00000000       3.64848485       0.00000000       0.00000000      -0.94420308
2
Properties=species:S:1:pos:R:3:forces:R:3 energy=-1.1375647618891527 pbc="F F F"
I        0.00000000       0.00000000       0.00000000       0.00000000       0.00000000       0.86367309
I        0.00000000       0.00000000       3.70727273       0.00000000       0.00000000      -0.86367309
2
Properties=species:S:1:pos:R:3:forces:R:3 energy=-1.0887922595759223 pbc="F F F"
I        0.00000000       0.00000000       0.00000000       0.00000000       0.00000000       0.79788858
I        0.00000000       0.00000000       3.76606061       0.00000000       0.00000000      -0.79788858
2
Properties=species:S:1:pos:R:3:forces:R:3 energy=-1.0435055803967597 pbc="F F F"
I        0.00000000       0.00000000       0.00000000       0.00000000       0.00000000       0.74465531
I        0.00000000       0.00000000       3.82484848       0.00000000       0.00000000      -0.74465531
2
Properties=species:S:1:pos:R:3:forces:R:3 energy=-1.001059517310901 pbc="F F F"
I        0.00000000       0.00000000       0.00000000       0.00000000       0.00000000       0.70057088
I        0.00000000       0.00000000       3.88363636       0.00000000       0.00000000      -0.70057088
2
Properties=species:S:1:pos:R:3:forces:R:3 energy=-0.9610307690505119 pbc="F F F"
I        0.00000000       0.00000000       0.00000000       0.00000000       0.00000000       0.66182244
I        0.00000000       0.00000000       3.94242424       0.00000000       0.00000000      -0.66182244
2
Properties=species:S:1:pos:R:3:forces:R:3 energy=-0.9232093212857859 pbc="F F F"
I        0.00000000       0.00000000       0.00000000       0.00000000       0.00000000       0.62496626
I        0.00000000       0.00000000       4.00121212       0.00000000       0.00000000      -0.62496626
2
Properties=species:S:1:pos:R:3:forces:R:3 energy=-0.8875623391294404 pbc="F F F"
I        0.00000000       0.00000000       0.00000000       0.00000000       0.00000000       0.58752370
I        0.00000000       0.00000000       4.06000000       0.00000000       0.00000000      -0.58752370
2
Properties=species:S:1:pos:R:3:forces:R:3 energy=-0.8541675852446468 pbc="F F F"
I        0.00000000       0.00000000       0.00000000       0.00000000       0.00000000       0.54826504
I        0.00000000       0.00000000       4.11878788       0.00000000       0.00000000      -0.54826504
2
Properties=species:S:1:pos:R:3:forces:R:3 energy=-0.8231360310892989 pbc="F F F"
I        0.00000000       0.00000000       0.00000000       0.00000000       0.00000000       0.50716972
I        0.00000000       0.00000000       4.17757576       0.00000000       0.00000000      -0.50716972
2
Properties=species:S:1:pos:R:3:forces:R:3 energy=-0.7945542180565629 pbc="F F F"
I        0.00000000       0.00000000       0.00000000       0.00000000       0.00000000       0.46516654
I        0.00000000       0.00000000       4.23636364       0.00000000       0.00000000      -0.46516654
2
Properties=species:S:1:pos:R:3:forces:R:3 energy=-0.7684328385052875 pbc="F F F"
I        0.00000000       0.00000000       0.00000000       0.00000000       0.00000000       0.42371529
I        0.00000000       0.00000000       4.29515152       0.00000000       0.00000000      -0.42371529
2
Properties=species:S:1:pos:R:3:forces:R:3 energy=-0.7446938789957128 pbc="F F F"
I        0.00000000       0.00000000       0.00000000       0.00000000       0.00000000       0.38439581
I        0.00000000       0.00000000       4.35393939       0.00000000       0.00000000      -0.38439581
2
Properties=species:S:1:pos:R:3:forces:R:3 energy=-0.7231694597067796 pbc="F F F"
I        0.00000000       0.00000000       0.00000000       0.00000000       0.00000000       0.34855101
I        0.00000000       0.00000000       4.41272727       0.00000000       0.00000000      -0.34855101
2
Properties=species:S:1:pos:R:3:forces:R:3 energy=-0.7036252315510614 pbc="F F F"
I        0.00000000       0.00000000       0.00000000       0.00000000       0.00000000       0.31714287
I        0.00000000       0.00000000       4.47151515       0.00000000       0.00000000      -0.31714287
2
Properties=species:S:1:pos:R:3:forces:R:3 energy=-0.6857823025964698 pbc="F F F"
I        0.00000000       0.00000000       0.00000000       0.00000000       0.00000000       0.29074588
I        0.00000000       0.00000000       4.53030303       0.00000000       0.00000000      -0.29074588
2
Properties=species:S:1:pos:R:3:forces:R:3 energy=-0.6693361143156912 pbc="F F F"
I        0.00000000       0.00000000       0.00000000       0.00000000       0.00000000       0.26967782
I        0.00000000       0.00000000       4.58909091       0.00000000       0.00000000      -0.26967782
2
Properties=species:S:1:pos:R:3:forces:R:3 energy=-0.6539671670864072 pbc="F F F"
I        0.00000000       0.00000000       0.00000000       0.00000000       0.00000000       0.25412169
I        0.00000000       0.00000000       4.64787879       0.00000000       0.00000000      -0.25412169
2
Properties=species:S:1:pos:R:3:forces:R:3 energy=-0.6393476753206656 pbc="F F F"
I        0.00000000       0.00000000       0.00000000       0.00000000       0.00000000       0.24415258
I        0.00000000       0.00000000       4.70666667       0.00000000       0.00000000      -0.24415258
2
Properties=species:S:1:pos:R:3:forces:R:3 energy=-0.625153008388855 pbc="F F F"
I        0.00000000       0.00000000       0.00000000       0.00000000       0.00000000       0.23966585
I        0.00000000       0.00000000       4.76545455       0.00000000       0.00000000      -0.23966585
2
Properties=species:S:1:pos:R:3:forces:R:3 energy=-0.6110682744730773 pbc="F F F"
I        0.00000000       0.00000000       0.00000000       0.00000000       0.00000000       0.24026941
I        0.00000000       0.00000000       4.82424242       0.00000000       0.00000000      -0.24026941
2
Properties=species:S:1:pos:R:3:forces:R:3 energy=-0.5968184405036685 pbc="F F F"
I        0.00000000       0.00000000       0.00000000       0.00000000       0.00000000       0.24521172
I        0.00000000       0.00000000       4.88303030       0.00000000       0.00000000      -0.24521172
2
Properties=species:S:1:pos:R:3:forces:R:3 energy=-0.5821741817499007 pbc="F F F"
I        0.00000000       0.00000000       0.00000000       0.00000000       0.00000000       0.25339556
I        0.00000000       0.00000000       4.94181818       0.00000000       0.00000000      -0.25339556
2
Properties=species:S:1:pos:R:3:forces:R:3 energy=-0.5669876426069774 pbc="F F F"
I        0.00000000       0.00000000       0.00000000       0.00000000       0.00000000       0.26345536
I        0.00000000       0.00000000       5.00060606       0.00000000       0.00000000      -0.26345536
2
Properties=species:S:1:pos:R:3:forces:R:3 energy=-0.5511908494453798 pbc="F F F"
I        0.00000000       0.00000000       0.00000000       0.00000000       0.00000000       0.27384689
I        0.00000000       0.00000000       5.05939394       0.00000000       0.00000000      -0.27384689
2
Properties=species:S:1:pos:R:3:forces:R:3 energy=-0.534815867484202 pbc="F F F"
I        0.00000000       0.00000000       0.00000000       0.00000000       0.00000000       0.28291658
I        0.00000000       0.00000000       5.11818182       0.00000000       0.00000000      -0.28291658
2
Properties=species:S:1:pos:R:3:forces:R:3 energy=-0.5179863396834561 pbc="F F F"
I        0.00000000       0.00000000       0.00000000       0.00000000       0.00000000       0.28899843
I        0.00000000       0.00000000       5.17696970       0.00000000       0.00000000      -0.28899843
2
Properties=species:S:1:pos:R:3:forces:R:3 energy=-0.5009264416959887 pbc="F F F"
I        0.00000000       0.00000000       0.00000000       0.00000000       0.00000000       0.29053754
I        0.00000000       0.00000000       5.23575758       0.00000000       0.00000000      -0.29053754
2
Properties=species:S:1:pos:R:3:forces:R:3 energy=-0.48394104223228074 pbc="F F F"
I        0.00000000       0.00000000       0.00000000       0.00000000       0.00000000       0.28624833
I        0.00000000       0.00000000       5.29454545       0.00000000       0.00000000      -0.28624833
2
Properties=species:S:1:pos:R:3:forces:R:3 energy=-0.4674006640590286 pbc="F F F"
I        0.00000000       0.00000000       0.00000000       0.00000000       0.00000000       0.27530149
I        0.00000000       0.00000000       5.35333333       0.00000000       0.00000000      -0.27530149
2
Properties=species:S:1:pos:R:3:forces:R:3 energy=-0.4517079949002905 pbc="F F F"
I        0.00000000       0.00000000       0.00000000       0.00000000       0.00000000       0.25749207
I        0.00000000       0.00000000       5.41212121       0.00000000       0.00000000      -0.25749207
2
Properties=species:S:1:pos:R:3:forces:R:3 energy=-0.43725081323135867 pbc="F F F"
I        0.00000000       0.00000000       0.00000000       0.00000000       0.00000000       0.23331159
I        0.00000000       0.00000000       5.47090909       0.00000000       0.00000000      -0.23331159
2
Properties=species:S:1:pos:R:3:forces:R:3 energy=-0.4243761950987024 pbc="F F F"
I        0.00000000       0.00000000       0.00000000       0.00000000       0.00000000       0.20391265
I        0.00000000       0.00000000       5.52969697       0.00000000       0.00000000      -0.20391265
2
Properties=species:S:1:pos:R:3:forces:R:3 energy=-0.4133452908256501 pbc="F F F"
I        0.00000000       0.00000000       0.00000000       0.00000000       0.00000000       0.17095418
I        0.00000000       0.00000000       5.58848485       0.00000000       0.00000000      -0.17095418
2
Properties=species:S:1:pos:R:3:forces:R:3 energy=-0.404312211004927 pbc="F F F"
I        0.00000000       0.00000000       0.00000000       0.00000000       0.00000000       0.13645157
I        0.00000000       0.00000000       5.64727273       0.00000000       0.00000000      -0.13645157
2
Properties=species:S:1:pos:R:3:forces:R:3 energy=-0.3972927673222806 pbc="F F F"
I        0.00000000       0.00000000       0.00000000       0.00000000       0.00000000       0.10254880
I        0.00000000       0.00000000       5.70606061       0.00000000       0.00000000      -0.10254880
2
Properties=species:S:1:pos:R:3:forces:R:3 energy=-0.3921917082113535 pbc="F F F"
I        0.00000000       0.00000000       0.00000000       0.00000000       0.00000000       0.07129775
I        0.00000000       0.00000000       5.76484848       0.00000000       0.00000000      -0.07129775
2
Properties=species:S:1:pos:R:3:forces:R:3 energy=-0.3888128635226282 pbc="F F F"
I        0.00000000       0.00000000       0.00000000       0.00000000       0.00000000       0.04460887
I        0.00000000       0.00000000       5.82363636       0.00000000       0.00000000      -0.04460887
2
Properties=species:S:1:pos:R:3:forces:R:3 energy=-0.38683500543424865 pbc="F F F"
I        0.00000000       0.00000000       0.00000000       0.00000000       0.00000000       0.02403105
I        0.00000000       0.00000000       5.88242424       0.00000000       0.00000000      -0.02403105
2
Properties=species:S:1:pos:R:3:forces:R:3 energy=-0.38584616349238704 pbc="F F F"
I        0.00000000       0.00000000       0.00000000       0.00000000       0.00000000       0.01081547
I        0.00000000       0.00000000       5.94121212       0.00000000       0.00000000      -0.01081547
2
Properties=species:S:1:pos:R:3:forces:R:3 energy=-0.38539647452824943 pbc="F F F"
I        0.00000000       0.00000000       0.00000000       0.00000000       0.00000000       0.00598860
I        0.00000000       0.00000000       6.00000000       0.00000000       0.00000000      -0.00598860
