2
Properties=species:S:1:pos:R:3:forces:R:3 energy=2293.1889579284357 pbc="F F F"
K        0.00000000       0.00000000       0.00000000       0.00000000       0.00000000  -33653.76953125
K        0.00000000       0.00000000       0.18000000       0.00000000       0.00000000   33653.76953125
2
Properties=species:S:1:pos:R:3:forces:R:3 energy=1052.4509208190607 pbc="F F F"
K        0.00000000       0.00000000       0.00000000       0.00000000       0.00000000  -12626.37402344
K        0.00000000       0.00000000       0.23878788       0.00000000       0.00000000   12626.37402344
2
Properties=species:S:1:pos:R:3:forces:R:3 energy=551.5243461120293 pbc="F F F"
K        0.00000000       0.00000000       0.00000000       0.00000000       0.00000000   -5553.14501953
K        0.00000000       0.00000000       0.29757576       0.00000000       0.00000000    5553.14501953
2
Properties=species:S:1:pos:R:3:forces:R:3 energy=320.11104655306633 pbc="F F F"
K        0.00000000       0.00000000       0.00000000       0.00000000       0.00000000   -2711.97680664
K        0.00000000       0.00000000       0.35636364       0.00000000       0.00000000    2711.97680664
2
Properties=species:S:1:pos:R:3:forces:R:3 energy=203.2123496536523 pbc="F F F"
K        0.00000000       0.00000000       0.00000000       0.00000000       0.00000000   -1422.31994629
K        0.00000000       0.00000000       0.41515152       0.00000000       0.00000000    1422.31994629
2
Properties=species:S:1:pos:R:3:forces:R:3 energy=140.414467576742 pbc="F F F"
K        0.00000000       0.00000000       0.00000000       0.00000000       0.00000000    -784.58532715
K        0.00000000       0.00000000       0.47393939       0.00000000       0.00000000     784.58532715
2
Properties=species:S:1:pos:R:3:forces:R:3 energy=105.15322185237075 pbc="F F F"
K        0.00000000       0.00000000       0.00000000       0.00000000       0.00000000    -449.25009155
K        0.00000000       0.00000000       0.53272727       0.00000000       0.00000000     449.25009155
2
Properties=species:S:1:pos:R:3:forces:R:3 energy=84.68772198077671 pbc="F F F"
K        0.00000000       0.00000000       0.00000000       0.00000000       0.00000000    -264.63906860
K        0.00000000       0.00000000       0.59151515       0.00000000       0.00000000     264.63906860
2
Properties=species:S:1:pos:R:3:forces:R:3 energy=72.50527264945987 pbc="F F F"
K        0.00000000       0.00000000       0.00000000       0.00000000       0.00000000    -159.35696411
K        0.00000000       0.00000000       0.65030303       0.00000000       0.00000000     159.35696411
2
Properties=species:S:1:pos:R:3:forces:R:3 energy=65.10419539479116 pbc="F F F"
K        0.00000000       0.00000000       0.00000000       0.00000000       0.00000000     -97.83750153
K        0.00000000       0.00000000       0.70909091       0.00000000       0.00000000      97.83750153
2
Properties=species:S:1:pos:R:3:forces:R:3 energy=60.5091484198956 pbc="F F F"
K        0.00000000       0.00000000       0.00000000       0.00000000       0.00000000     -61.74280930
K        0.00000000       0.00000000       0.76787879       0.00000000       0.00000000      61.74280930
2
Properties=species:S:1:pos:R:3:forces:R:3 energy=57.53664097793501 pbc="F F F"
K        0.00000000       0.00000000       0.00000000       0.00000000       0.00000000     -41.52039719
K        0.00000000       0.00000000       0.82666667       0.00000000       0.00000000      41.52039719
2
Properties=species:S:1:pos:R:3:forces:R:3 energy=55.413815406061566 pbc="F F F"
K        0.00000000       0.00000000       0.00000000       0.00000000       0.00000000     -32.27276993
K        0.00000000       0.00000000       0.88545455       0.00000000       0.00000000      32.27276993
2
Properties=species:S:1:pos:R:3:forces:R:3 energy=53.575962997726315 pbc="F F F"
K        0.00000000       0.00000000       0.00000000       0.00000000       0.00000000     -31.53526115
K        0.00000000       0.00000000       0.94424242       0.00000000       0.00000000      31.53526115
2
Properties=species:S:1:pos:R:3:forces:R:3 energy=51.567238883282315 pbc="F F F"
K        0.00000000       0.00000000       0.00000000       0.00000000       0.00000000     -37.88235855
K        0.00000000       0.00000000       1.00303030       0.00000000       0.00000000      37.88235855
2
Properties=species:S:1:pos:R:3:forces:R:3 energy=49.01016351267474 pbc="F F F"
K        0.00000000       0.00000000       0.00000000       0.00000000       0.00000000     -49.90987778
K        0.00000000       0.00000000       1.06181818       0.00000000       0.00000000      49.90987778
2
Properties=species:S:1:pos:R:3:forces:R:3 energy=45.628533743057304 pbc="F F F"
K        0.00000000       0.00000000       0.00000000       0.00000000       0.00000000     -65.49954987
K        0.00000000       0.00000000       1.12060606       0.00000000       0.00000000      65.49954987
2
Properties=species:S:1:pos:R:3:forces:R:3 energy=41.29987109565822 pbc="F F F"
K        0.00000000       0.00000000       0.00000000       0.00000000       0.00000000     -81.53096008
K        0.00000000       0.00000000       1.17939394       0.00000000       0.00000000      81.53096008
2
Properties=species:S:1:pos:R:3:forces:R:3 energy=36.10783571521685 pbc="F F F"
K        0.00000000       0.00000000       0.00000000       0.00000000       0.00000000     -94.23630524
K        0.00000000       0.00000000       1.23818182       0.00000000       0.00000000      94.23630524
2
Properties=species:S:1:pos:R:3:forces:R:3 energy=30.352852188626237 pbc="F F F"
K        0.00000000       0.00000000       0.00000000       0.00000000       0.00000000    -100.21994019
K        0.00000000       0.00000000       1.29696970       0.00000000       0.00000000     100.21994019
2
Properties=species:S:1:pos:R:3:forces:R:3 energy=24.49073870957893 pbc="F F F"
K        0.00000000       0.00000000       0.00000000       0.00000000       0.00000000     -97.80592346
K        0.00000000       0.00000000       1.35575758       0.00000000       0.00000000      97.80592346
2
Properties=species:S:1:pos:R:3:forces:R:3 energy=19.00222535859629 pbc="F F F"
K        0.00000000       0.00000000       0.00000000       0.00000000       0.00000000     -87.86862183
K        0.00000000       0.00000000       1.41454545       0.00000000       0.00000000      87.86862183
2
Properties=species:S:1:pos:R:3:forces:R:3 energy=14.245818358966918 pbc="F F F"
K        0.00000000       0.00000000       0.00000000       0.00000000       0.00000000     -73.56150055
K        0.00000000       0.00000000       1.47333333       0.00000000       0.00000000      73.56150055
2
Properties=species:S:1:pos:R:3:forces:R:3 energy=10.35896891107621 pbc="F F F"
K        0.00000000       0.00000000       0.00000000       0.00000000       0.00000000     -58.90090942
K        0.00000000       0.00000000       1.53212121       0.00000000       0.00000000      58.90090942
2
Properties=species:S:1:pos:R:3:forces:R:3 energy=7.27644381601157 pbc="F F F"
K        0.00000000       0.00000000       0.00000000       0.00000000       0.00000000     -46.40137100
K        0.00000000       0.00000000       1.59090909       0.00000000       0.00000000      46.40137100
2
Properties=species:S:1:pos:R:3:forces:R:3 energy=4.856482285676021 pbc="F F F"
K        0.00000000       0.00000000       0.00000000       0.00000000       0.00000000     -36.25934219
K        0.00000000       0.00000000       1.64969697       0.00000000       0.00000000      36.25934219
2
Properties=species:S:1:pos:R:3:forces:R:3 energy=2.9831187533013273 pbc="F F F"
K        0.00000000       0.00000000       0.00000000       0.00000000       0.00000000     -27.66335678
K        0.00000000       0.00000000       1.70848485       0.00000000       0.00000000      27.66335678
2
Properties=species:S:1:pos:R:3:forces:R:3 energy=1.586094649003696 pbc="F F F"
K        0.00000000       0.00000000       0.00000000       0.00000000       0.00000000     -20.00222969
K        0.00000000       0.00000000       1.76727273       0.00000000       0.00000000      20.00222969
2
Properties=species:S:1:pos:R:3:forces:R:3 energy=0.6126129443819783 pbc="F F F"
K        0.00000000       0.00000000       0.00000000       0.00000000       0.00000000     -13.31353283
K        0.00000000       0.00000000       1.82606061       0.00000000       0.00000000      13.31353283
2
Properties=species:S:1:pos:R:3:forces:R:3 energy=-0.007702934972983022 pbc="F F F"
K        0.00000000       0.00000000       0.00000000       0.00000000       0.00000000      -8.06852913
K        0.00000000       0.00000000       1.88484848       0.00000000       0.00000000       8.06852913
2
Properties=species:S:1:pos:R:3:forces:R:3 energy=-0.3702871709843413 pbc="F F F"
K        0.00000000       0.00000000       0.00000000       0.00000000       0.00000000      -4.55230713
K        0.00000000       0.00000000       1.94363636       0.00000000       0.00000000       4.55230713
2
Properties=species:S:1:pos:R:3:forces:R:3 energy=-0.5732484592553218 pbc="F F F"
K        0.00000000       0.00000000       0.00000000       0.00000000       0.00000000      -2.57305980
K        0.00000000       0.00000000       2.00242424       0.00000000       0.00000000       2.57305980
2
Properties=species:S:1:pos:R:3:forces:R:3 energy=-0.6936095083313621 pbc="F F F"
K        0.00000000       0.00000000       0.00000000       0.00000000       0.00000000      -1.65503681
K        0.00000000       0.00000000       2.06121212       0.00000000       0.00000000       1.65503681
2
Properties=species:S:1:pos:R:3:forces:R:3 energy=-0.778968949110305 pbc="F F F"
K        0.00000000       0.00000000       0.00000000       0.00000000       0.00000000      -1.31054568
K        0.00000000       0.00000000       2.12000000       0.00000000       0.00000000       1.31054568
2
Properties=species:S:1:pos:R:3:forces:R:3 energy=-0.852199065416904 pbc="F F F"
K        0.00000000       0.00000000       0.00000000       0.00000000       0.00000000      -1.20193577
K        0.00000000       0.00000000       2.17878788       0.00000000       0.00000000       1.20193577
2
Properties=species:S:1:pos:R:3:forces:R:3 energy=-0.9216086370268958 pbc="F F F"
K        0.00000000       0.00000000       0.00000000       0.00000000       0.00000000      -1.16409981
K        0.00000000       0.00000000       2.23757576       0.00000000       0.00000000       1.16409981
2
Properties=species:S:1:pos:R:3:forces:R:3 energy=-0.9892267805265944 pbc="F F F"
K        0.00000000       0.00000000       0.00000000       0.00000000       0.00000000      -1.13561690
K        0.00000000       0.00000000       2.29636364       0.00000000       0.00000000       1.13561690
2
Properties=species:S:1:pos:R:3:forces:R:3 energy=-1.054960075262752 pbc="F F F"
K        0.00000000       0.00000000       0.00000000       0.00000000       0.00000000      -1.09889543
K        0.00000000       0.00000000       2.35515152       0.00000000       0.00000000       1.09889543
2
Properties=species:S:1:pos:R:3:forces:R:3 energy=-1.1182252616918011 pbc="F F F"
K        0.00000000       0.00000000       0.00000000       0.00000000       0.00000000      -1.05181289
K        0.00000000       0.00000000       2.41393939       0.00000000       0.00000000       1.05181289
2
Properties=species:S:1:pos:R:3:forces:R:3 energy=-1.1784568392864951 pbc="F F F"
K        0.00000000       0.00000000       0.00000000       0.00000000       0.00000000      -0.99596500
K        0.00000000       0.00000000       2.47272727       0.00000000       0.00000000       0.99596500
2
Properties=species:S:1:pos:R:3:forces:R:3 energy=-1.23517290749363 pbc="F F F"
K        0.00000000       0.00000000       0.00000000       0.00000000       0.00000000      -0.93221670
K        0.00000000       0.00000000       2.53151515       0.00000000       0.00000000       0.93221670
2
Properties=species:S:1:pos:R:3:forces:R:3 energy=-1.2878870025448665 pbc="F F F"
K        0.00000000       0.00000000       0.00000000       0.00000000       0.00000000      -0.85947490
K        0.00000000       0.00000000       2.59030303       0.00000000       0.00000000       0.85947490
2
Properties=species:S:1:pos:R:3:forces:R:3 energy=-1.3360014637472915 pbc="F F F"
K        0.00000000       0.00000000       0.00000000       0.00000000       0.00000000      -0.77524900
K        0.00000000       0.00000000       2.64909091       0.00000000       0.00000000       0.77524900
2
Properties=species:S:1:pos:R:3:forces:R:3 energy=-1.3787698192007665 pbc="F F F"
K        0.00000000       0.00000000       0.00000000       0.00000000       0.00000000      -0.67741853
K        0.00000000       0.00000000       2.70787879       0.00000000       0.00000000       0.67741853
2
Properties=species:S:1:pos:R:3:forces:R:3 energy=-1.415384078676101 pbc="F F F"
K        0.00000000       0.00000000       0.00000000       0.00000000       0.00000000      -0.56618285
K        0.00000000       0.00000000       2.76666667       0.00000000       0.00000000       0.56618285
2
Properties=species:S:1:pos:R:3:forces:R:3 energy=-1.4451403089825934 pbc="F F F"
K        0.00000000       0.00000000       0.00000000       0.00000000       0.00000000      -0.44488654
K        0.00000000       0.00000000       2.82545455       0.00000000       0.00000000       0.44488654
2
Properties=species:S:1:pos:R:3:forces:R:3 energy=-1.467606820852566 pbc="F F F"
K        0.00000000       0.00000000       0.00000000       0.00000000       0.00000000      -0.31926379
K        0.00000000       0.00000000       2.88424242       0.00000000       0.00000000       0.31926379
2
Properties=species:S:1:pos:R:3:forces:R:3 energy=-1.482719133979667 pbc="F F F"
K        0.00000000       0.00000000       0.00000000       0.00000000       0.00000000      -0.19572398
K        0.00000000       0.00000000       2.94303030       0.00000000       0.00000000       0.19572398
2
Properties=species:S:1:pos:R:3:forces:R:3 energy=-1.4907685951155658 pbc="F F F"
K        0.00000000       0.00000000       0.00000000       0.00000000       0.00000000      -0.07975512
K        0.00000000       0.00000000       3.00181818       0.00000000       0.00000000       0.07975512
2
Properties=species:S:1:pos:R:3:forces:R:3 energy=-1.4923192701882018 pbc="F F F"
K        0.00000000       0.00000000       0.00000000       0.00000000       0.00000000       0.02492916
K        0.00000000       0.00000000       3.06060606       0.00000000       0.00000000      -0.02492916
2
Properties=species:S:1:pos:R:3:forces:R:3 energy=-1.4880947029803089 pbc="F F F"
K        0.00000000       0.00000000       0.00000000       0.00000000       0.00000000       0.11654559
K        0.00000000       0.00000000       3.11939394       0.00000000       0.00000000      -0.11654559
2
Properties=species:S:1:pos:R:3:forces:R:3 energy=-1.4788748264364 pbc="F F F"
K        0.00000000       0.00000000       0.00000000       0.00000000       0.00000000       0.19499256
K        0.00000000       0.00000000       3.17818182       0.00000000       0.00000000      -0.19499256
2
Properties=species:S:1:pos:R:3:forces:R:3 energy=-1.4654060309251558 pbc="F F F"
K        0.00000000       0.00000000       0.00000000       0.00000000       0.00000000       0.26132178
K        0.00000000       0.00000000       3.23696970       0.00000000       0.00000000      -0.26132178
2
Properties=species:S:1:pos:R:3:forces:R:3 energy=-1.4483582742377625 pbc="F F F"
K        0.00000000       0.00000000       0.00000000       0.00000000       0.00000000       0.31699601
K        0.00000000       0.00000000       3.29575758       0.00000000       0.00000000      -0.31699601
2
Properties=species:S:1:pos:R:3:forces:R:3 energy=-1.4283215354035368 pbc="F F F"
K        0.00000000       0.00000000       0.00000000       0.00000000       0.00000000       0.36313599
K        0.00000000       0.00000000       3.35454545       0.00000000       0.00000000      -0.36313599
2
Properties=species:S:1:pos:R:3:forces:R:3 energy=-1.4058408032003842 pbc="F F F"
K        0.00000000       0.00000000       0.00000000       0.00000000       0.00000000       0.40015376
K        0.00000000       0.00000000       3.41333333       0.00000000       0.00000000      -0.40015376
2
Properties=species:S:1:pos:R:3:forces:R:3 energy=-1.3814536698466067 pbc="F F F"
K        0.00000000       0.00000000       0.00000000       0.00000000       0.00000000       0.42795017
K        0.00000000       0.00000000       3.47212121       0.00000000       0.00000000      -0.42795017
2
Properties=species:S:1:pos:R:3:forces:R:3 energy=-1.355705689576363 pbc="F F F"
K        0.00000000       0.00000000       0.00000000       0.00000000       0.00000000       0.44651678
K        0.00000000       0.00000000       3.53090909       0.00000000       0.00000000      -0.44651678
2
Properties=species:S:1:pos:R:3:forces:R:3 energy=-1.329122597707512 pbc="F F F"
K        0.00000000       0.00000000       0.00000000       0.00000000       0.00000000       0.45653090
K        0.00000000       0.00000000       3.58969697       0.00000000       0.00000000      -0.45653090
2
Properties=species:S:1:pos:R:3:forces:R:3 energy=-1.3021653857465127 pbc="F F F"
K        0.00000000       0.00000000       0.00000000       0.00000000       0.00000000       0.45958370
K        0.00000000       0.00000000       3.64848485       0.00000000       0.00000000      -0.45958370
2
Properties=species:S:1:pos:R:3:forces:R:3 energy=-1.2751789625343997 pbc="F F F"
K        0.00000000       0.00000000       0.00000000       0.00000000       0.00000000       0.45792860
K        0.00000000       0.00000000       3.70727273       0.00000000       0.00000000      -0.45792860
2
Properties=species:S:1:pos:R:3:forces:R:3 energy=-1.2483693590979832 pbc="F F F"
K        0.00000000       0.00000000       0.00000000       0.00000000       0.00000000       0.45392904
K        0.00000000       0.00000000       3.76606061       0.00000000       0.00000000      -0.45392904
2
Properties=species:S:1:pos:R:3:forces:R:3 energy=-1.2218153167976282 pbc="F F F"
K        0.00000000       0.00000000       0.00000000       0.00000000       0.00000000       0.44952658
K        0.00000000       0.00000000       3.82484848       0.00000000       0.00000000      -0.44952658
2
Properties=species:S:1:pos:R:3:forces:R:3 energy=-1.1955001632290136 pbc="F F F"
K        0.00000000       0.00000000       0.00000000       0.00000000       0.00000000       0.44589952
K        0.00000000       0.00000000       3.88363636       0.00000000       0.00000000      -0.44589952
2
Properties=species:S:1:pos:R:3:forces:R:3 energy=-1.1693666934379785 pbc="F F F"
K        0.00000000       0.00000000       0.00000000       0.00000000       0.00000000       0.44335610
K        0.00000000       0.00000000       3.94242424       0.00000000       0.00000000      -0.44335610
2
Properties=species:S:1:pos:R:3:forces:R:3 energy=-1.1433609831824894 pbc="F F F"
K        0.00000000       0.00000000       0.00000000       0.00000000       0.00000000       0.44137889
K        0.00000000       0.00000000       4.00121212       0.00000000       0.00000000      -0.44137889
2
Properties=species:S:1:pos:R:3:forces:R:3 energy=-1.1174823494007418 pbc="F F F"
K        0.00000000       0.00000000       0.00000000       0.00000000       0.00000000       0.43881238
K        0.00000000       0.00000000       4.06000000       0.00000000       0.00000000      -0.43881238
2
Properties=species:S:1:pos:R:3:forces:R:3 energy=-1.0918083888664434 pbc="F F F"
K        0.00000000       0.00000000       0.00000000       0.00000000       0.00000000       0.43417257
K        0.00000000       0.00000000       4.11878788       0.00000000       0.00000000      -0.43417257
2
Properties=species:S:1:pos:R:3:forces:R:3 energy=-1.0665036478459646 pbc="F F F"
K        0.00000000       0.00000000       0.00000000       0.00000000       0.00000000       0.42599744
K        0.00000000       0.00000000       4.17757576       0.00000000       0.00000000      -0.42599744
2
Properties=species:S:1:pos:R:3:forces:R:3 energy=-1.0418140914676521 pbc="F F F"
K        0.00000000       0.00000000       0.00000000       0.00000000       0.00000000       0.41307718
K        0.00000000       0.00000000       4.23636364       0.00000000       0.00000000      -0.41307718
2
Properties=species:S:1:pos:R:3:forces:R:3 energy=-1.0180474510152568 pbc="F F F"
K        0.00000000       0.00000000       0.00000000       0.00000000       0.00000000       0.39443284
K        0.00000000       0.00000000       4.29515152       0.00000000       0.00000000      -0.39443284
2
Properties=species:S:1:pos:R:3:forces:R:3 energy=-0.9955702627714599 pbc="F F F"
K        0.00000000       0.00000000       0.00000000       0.00000000       0.00000000       0.36905566
K        0.00000000       0.00000000       4.35393939       0.00000000       0.00000000      -0.36905566
2
Properties=species:S:1:pos:R:3:forces:R:3 energy=-0.974815073242755 pbc="F F F"
K        0.00000000       0.00000000       0.00000000       0.00000000       0.00000000       0.33554658
K        0.00000000       0.00000000       4.41272727       0.00000000       0.00000000      -0.33554658
2
Properties=species:S:1:pos:R:3:forces:R:3 energy=-0.9563103619769107 pbc="F F F"
K        0.00000000       0.00000000       0.00000000       0.00000000       0.00000000       0.29224521
K        0.00000000       0.00000000       4.47151515       0.00000000       0.00000000      -0.29224521
2
Properties=species:S:1:pos:R:3:forces:R:3 energy=-0.9406571486613055 pbc="F F F"
K        0.00000000       0.00000000       0.00000000       0.00000000       0.00000000       0.23871805
K        0.00000000       0.00000000       4.53030303       0.00000000       0.00000000      -0.23871805
2
Properties=species:S:1:pos:R:3:forces:R:3 energy=-0.9283645915671415 pbc="F F F"
K        0.00000000       0.00000000       0.00000000       0.00000000       0.00000000       0.17928024
K        0.00000000       0.00000000       4.58909091       0.00000000       0.00000000      -0.17928024
2
Properties=species:S:1:pos:R:3:forces:R:3 energy=-0.919454199824031 pbc="F F F"
K        0.00000000       0.00000000       0.00000000       0.00000000       0.00000000       0.12643269
K        0.00000000       0.00000000       4.64787879       0.00000000       0.00000000      -0.12643269
2
Properties=species:S:1:pos:R:3:forces:R:3 energy=-0.9130116591064432 pbc="F F F"
K        0.00000000       0.00000000       0.00000000       0.00000000       0.00000000       0.09826428
K        0.00000000       0.00000000       4.70666667       0.00000000       0.00000000      -0.09826428
2
Properties=species:S:1:pos:R:3:forces:R:3 energy=-0.907155524826838 pbc="F F F"
K        0.00000000       0.00000000       0.00000000       0.00000000       0.00000000       0.10757104
K        0.00000000       0.00000000       4.76545455       0.00000000       0.00000000      -0.10757104
2
Properties=species:S:1:pos:R:3:forces:R:3 energy=-0.8996575191712999 pbc="F F F"
K        0.00000000       0.00000000       0.00000000       0.00000000       0.00000000       0.15244976
K        0.00000000       0.00000000       4.82424242       0.00000000       0.00000000      -0.15244976
2
Properties=species:S:1:pos:R:3:forces:R:3 energy=-0.8888104461175655 pbc="F F F"
K        0.00000000       0.00000000       0.00000000       0.00000000       0.00000000       0.21879694
K        0.00000000       0.00000000       4.88303030       0.00000000       0.00000000      -0.21879694
2
Properties=species:S:1:pos:R:3:forces:R:3 energy=-0.8738348835218483 pbc="F F F"
K        0.00000000       0.00000000       0.00000000       0.00000000       0.00000000       0.29033282
K        0.00000000       0.00000000       4.94181818       0.00000000       0.00000000      -0.29033282
2
Properties=species:S:1:pos:R:3:forces:R:3 energy=-0.8548019599270645 pbc="F F F"
K        0.00000000       0.00000000       0.00000000       0.00000000       0.00000000       0.35550144
K        0.00000000       0.00000000       5.00060606       0.00000000       0.00000000      -0.35550144
2
Properties=species:S:1:pos:R:3:forces:R:3 energy=-0.8322774480024968 pbc="F F F"
K        0.00000000       0.00000000       0.00000000       0.00000000       0.00000000       0.40843210
K        0.00000000       0.00000000       5.05939394       0.00000000       0.00000000      -0.40843210
2
Properties=species:S:1:pos:R:3:forces:R:3 energy=-0.807062885745927 pbc="F F F"
K        0.00000000       0.00000000       0.00000000       0.00000000       0.00000000       0.44698495
K        0.00000000       0.00000000       5.11818182       0.00000000       0.00000000      -0.44698495
2
Properties=species:S:1:pos:R:3:forces:R:3 energy=-0.7800134911825941 pbc="F F F"
K        0.00000000       0.00000000       0.00000000       0.00000000       0.00000000       0.47080848
K        0.00000000       0.00000000       5.17696970       0.00000000       0.00000000      -0.47080848
2
Properties=species:S:1:pos:R:3:forces:R:3 energy=-0.7519895860276984 pbc="F F F"
K        0.00000000       0.00000000       0.00000000       0.00000000       0.00000000       0.48027718
K        0.00000000       0.00000000       5.23575758       0.00000000       0.00000000      -0.48027718
2
Properties=species:S:1:pos:R:3:forces:R:3 energy=-0.7238129717417706 pbc="F F F"
K        0.00000000       0.00000000       0.00000000       0.00000000       0.00000000       0.47609562
K        0.00000000       0.00000000       5.29454545       0.00000000       0.00000000      -0.47609562
2
Properties=species:S:1:pos:R:3:forces:R:3 energy=-0.6962580063794839 pbc="F F F"
K        0.00000000       0.00000000       0.00000000       0.00000000       0.00000000       0.45932627
K        0.00000000       0.00000000       5.35333333       0.00000000       0.00000000      -0.45932627
2
Properties=species:S:1:pos:R:3:forces:R:3 energy=-0.6700266237188243 pbc="F F F"
K        0.00000000       0.00000000       0.00000000       0.00000000       0.00000000       0.43144175
K        0.00000000       0.00000000       5.41212121       0.00000000       0.00000000      -0.43144175
2
Properties=species:S:1:pos:R:3:forces:R:3 energy=-0.645710670335737 pbc="F F F"
K        0.00000000       0.00000000       0.00000000       0.00000000       0.00000000       0.39438698
K        0.00000000       0.00000000       5.47090909       0.00000000       0.00000000      -0.39438698
2
Properties=species:S:1:pos:R:3:forces:R:3 energy=-0.6237871755923584 pbc="F F F"
K        0.00000000       0.00000000       0.00000000       0.00000000       0.00000000       0.35049868
K        0.00000000       0.00000000       5.52969697       0.00000000       0.00000000      -0.35049868
2
Properties=species:S:1:pos:R:3:forces:R:3 energy=-0.6045830488336749 pbc="F F F"
K        0.00000000       0.00000000       0.00000000       0.00000000       0.00000000       0.30240214
K        0.00000000       0.00000000       5.58848485       0.00000000       0.00000000      -0.30240214
2
Properties=species:S:1:pos:R:3:forces:R:3 energy=-0.5882678148374263 pbc="F F F"
K        0.00000000       0.00000000       0.00000000       0.00000000       0.00000000       0.25289536
K        0.00000000       0.00000000       5.64727273       0.00000000       0.00000000      -0.25289536
2
Properties=species:S:1:pos:R:3:forces:R:3 energy=-0.5748254794985512 pbc="F F F"
K        0.00000000       0.00000000       0.00000000       0.00000000       0.00000000       0.20474556
K        0.00000000       0.00000000       5.70606061       0.00000000       0.00000000      -0.20474556
2
Properties=species:S:1:pos:R:3:forces:R:3 energy=-0.5641010935845298 pbc="F F F"
K        0.00000000       0.00000000       0.00000000       0.00000000       0.00000000       0.16053374
K        0.00000000       0.00000000       5.76484848       0.00000000       0.00000000      -0.16053374
2
Properties=species:S:1:pos:R:3:forces:R:3 energy=-0.5558152436000182 pbc="F F F"
K        0.00000000       0.00000000       0.00000000       0.00000000       0.00000000       0.12266678
K        0.00000000       0.00000000       5.82363636       0.00000000       0.00000000      -0.12266678
2
Properties=species:S:1:pos:R:3:forces:R:3 energy=-0.5495259251652627 pbc="F F F"
K        0.00000000       0.00000000       0.00000000       0.00000000       0.00000000       0.09314398
K        0.00000000       0.00000000       5.88242424       0.00000000       0.00000000      -0.09314398
2
Properties=species:S:1:pos:R:3:forces:R:3 energy=-0.5446708655339241 pbc="F F F"
K        0.00000000       0.00000000       0.00000000       0.00000000       0.00000000       0.07367898
K        0.00000000       0.00000000       5.94121212       0.00000000       0.00000000      -0.07367898
2
Properties=species:S:1:pos:R:3:forces:R:3 energy=-0.5406347146628909 pbc="F F F"
K        0.00000000       0.00000000       0.00000000       0.00000000       0.00000000       0.06572454
K        0.00000000       0.00000000       6.00000000       0.00000000       0.00000000      -0.06572454
