2
Properties=species:S:1:pos:R:3:forces:R:3 energy=5705.274500821196 pbc="F F F"
Kr       0.00000000       0.00000000       0.00000000       0.00000000       0.00000000  -91979.85156250
Kr       0.00000000       0.00000000       0.18000000       0.00000000       0.00000000   91979.85156250
2
Properties=species:S:1:pos:R:3:forces:R:3 energy=2395.8011121524887 pbc="F F F"
Kr       0.00000000       0.00000000       0.00000000       0.00000000       0.00000000  -32624.64062500
Kr       0.00000000       0.00000000       0.23878788       0.00000000       0.00000000   32624.64062500
2
Properties=species:S:1:pos:R:3:forces:R:3 energy=1129.5684461400315 pbc="F F F"
Kr       0.00000000       0.00000000       0.00000000       0.00000000       0.00000000  -13636.00488281
Kr       0.00000000       0.00000000       0.29757576       0.00000000       0.00000000   13636.00488281
2
Properties=species:S:1:pos:R:3:forces:R:3 energy=574.1132459510545 pbc="F F F"
Kr       0.00000000       0.00000000       0.00000000       0.00000000       0.00000000   -6319.82714844
Kr       0.00000000       0.00000000       0.35636364       0.00000000       0.00000000    6319.82714844
2
Properties=species:S:1:pos:R:3:forces:R:3 energy=308.1179456675893 pbc="F F F"
Kr       0.00000000       0.00000000       0.00000000       0.00000000       0.00000000   -3141.20581055
Kr       0.00000000       0.00000000       0.41515152       0.00000000       0.00000000    3141.20581055
2
Properties=species:S:1:pos:R:3:forces:R:3 energy=172.67158033965438 pbc="F F F"
Kr       0.00000000       0.00000000       0.00000000       0.00000000       0.00000000   -1644.70019531
Kr       0.00000000       0.00000000       0.47393939       0.00000000       0.00000000    1644.70019531
2
Properties=species:S:1:pos:R:3:forces:R:3 energy=100.3523207404492 pbc="F F F"
Kr       0.00000000       0.00000000       0.00000000       0.00000000       0.00000000    -898.37762451
Kr       0.00000000       0.00000000       0.53272727       0.00000000       0.00000000     898.37762451
2
Properties=species:S:1:pos:R:3:forces:R:3 energy=60.17674938116218 pbc="F F F"
Kr       0.00000000       0.00000000       0.00000000       0.00000000       0.00000000    -508.99588013
Kr       0.00000000       0.00000000       0.59151515       0.00000000       0.00000000     508.99588013
2
Properties=species:S:1:pos:R:3:forces:R:3 energy=37.06939249539987 pbc="F F F"
Kr       0.00000000       0.00000000       0.00000000       0.00000000       0.00000000    -297.88522339
Kr       0.00000000       0.00000000       0.65030303       0.00000000       0.00000000     297.88522339
2
Properties=species:S:1:pos:R:3:forces:R:3 energy=23.36354973901002 pbc="F F F"
Kr       0.00000000       0.00000000       0.00000000       0.00000000       0.00000000    -179.40629578
Kr       0.00000000       0.00000000       0.70909091       0.00000000       0.00000000     179.40629578
2
Properties=species:S:1:pos:R:3:forces:R:3 energy=15.01096331907988 pbc="F F F"
Kr       0.00000000       0.00000000       0.00000000       0.00000000       0.00000000    -110.79857635
Kr       0.00000000       0.00000000       0.76787879       0.00000000       0.00000000     110.79857635
2
Properties=species:S:1:pos:R:3:forces:R:3 energy=9.798383119741677 pbc="F F F"
Kr       0.00000000       0.00000000       0.00000000       0.00000000       0.00000000     -69.96527100
Kr       0.00000000       0.00000000       0.82666667       0.00000000       0.00000000      69.96527100
2
Properties=species:S:1:pos:R:3:forces:R:3 energy=6.475539781854005 pbc="F F F"
Kr       0.00000000       0.00000000       0.00000000       0.00000000       0.00000000     -45.07678986
Kr       0.00000000       0.00000000       0.88545455       0.00000000       0.00000000      45.07678986
2
Properties=species:S:1:pos:R:3:forces:R:3 energy=4.3165785014517235 pbc="F F F"
Kr       0.00000000       0.00000000       0.00000000       0.00000000       0.00000000     -29.55886078
Kr       0.00000000       0.00000000       0.94424242       0.00000000       0.00000000      29.55886078
2
Properties=species:S:1:pos:R:3:forces:R:3 energy=2.8910431962313616 pbc="F F F"
Kr       0.00000000       0.00000000       0.00000000       0.00000000       0.00000000     -19.65876961
Kr       0.00000000       0.00000000       1.00303030       0.00000000       0.00000000      19.65876961
2
Properties=species:S:1:pos:R:3:forces:R:3 energy=1.9381177637657063 pbc="F F F"
Kr       0.00000000       0.00000000       0.00000000       0.00000000       0.00000000     -13.21050835
Kr       0.00000000       0.00000000       1.06181818       0.00000000       0.00000000      13.21050835
2
Properties=species:S:1:pos:R:3:forces:R:3 energy=1.2950625612053883 pbc="F F F"
Kr       0.00000000       0.00000000       0.00000000       0.00000000       0.00000000      -8.96027851
Kr       0.00000000       0.00000000       1.12060606       0.00000000       0.00000000       8.96027851
2
Properties=species:S:1:pos:R:3:forces:R:3 energy=0.8563853275618949 pbc="F F F"
Kr       0.00000000       0.00000000       0.00000000       0.00000000       0.00000000      -6.15548325
Kr       0.00000000       0.00000000       1.17939394       0.00000000       0.00000000       6.15548325
2
Properties=species:S:1:pos:R:3:forces:R:3 energy=0.5536033644092916 pbc="F F F"
Kr       0.00000000       0.00000000       0.00000000       0.00000000       0.00000000      -4.26332474
Kr       0.00000000       0.00000000       1.23818182       0.00000000       0.00000000       4.26332474
2
Properties=species:S:1:pos:R:3:forces:R:3 energy=0.34365833959430825 pbc="F F F"
Kr       0.00000000       0.00000000       0.00000000       0.00000000       0.00000000      -2.96089864
Kr       0.00000000       0.00000000       1.29696970       0.00000000       0.00000000       2.96089864
2
Properties=species:S:1:pos:R:3:forces:R:3 energy=0.19735007948553068 pbc="F F F"
Kr       0.00000000       0.00000000       0.00000000       0.00000000       0.00000000      -2.07401037
Kr       0.00000000       0.00000000       1.35575758       0.00000000       0.00000000       2.07401037
2
Properties=species:S:1:pos:R:3:forces:R:3 energy=0.09426747036769849 pbc="F F F"
Kr       0.00000000       0.00000000       0.00000000       0.00000000       0.00000000      -1.47070849
Kr       0.00000000       0.00000000       1.41454545       0.00000000       0.00000000       1.47070849
2
Properties=species:S:1:pos:R:3:forces:R:3 energy=0.020885875189639382 pbc="F F F"
Kr       0.00000000       0.00000000       0.00000000       0.00000000       0.00000000      -1.04945278
Kr       0.00000000       0.00000000       1.47333333       0.00000000       0.00000000       1.04945278
2
Properties=species:S:1:pos:R:3:forces:R:3 energy=-0.03134198531589011 pbc="F F F"
Kr       0.00000000       0.00000000       0.00000000       0.00000000       0.00000000      -0.74243134
Kr       0.00000000       0.00000000       1.53212121       0.00000000       0.00000000       0.74243134
2
Properties=species:S:1:pos:R:3:forces:R:3 energy=-0.06787267703948778 pbc="F F F"
Kr       0.00000000       0.00000000       0.00000000       0.00000000       0.00000000      -0.51089215
Kr       0.00000000       0.00000000       1.59090909       0.00000000       0.00000000       0.51089215
2
Properties=species:S:1:pos:R:3:forces:R:3 energy=-0.09249935667175496 pbc="F F F"
Kr       0.00000000       0.00000000       0.00000000       0.00000000       0.00000000      -0.33520260
Kr       0.00000000       0.00000000       1.64969697       0.00000000       0.00000000       0.33520260
2
Properties=species:S:1:pos:R:3:forces:R:3 energy=-0.10816997695293543 pbc="F F F"
Kr       0.00000000       0.00000000       0.00000000       0.00000000       0.00000000      -0.20476197
Kr       0.00000000       0.00000000       1.70848485       0.00000000       0.00000000       0.20476197
2
Properties=species:S:1:pos:R:3:forces:R:3 energy=-0.11729464324440772 pbc="F F F"
Kr       0.00000000       0.00000000       0.00000000       0.00000000       0.00000000      -0.11102899
Kr       0.00000000       0.00000000       1.76727273       0.00000000       0.00000000       0.11102899
2
Properties=species:S:1:pos:R:3:forces:R:3 energy=-0.12175954517645193 pbc="F F F"
Kr       0.00000000       0.00000000       0.00000000       0.00000000       0.00000000      -0.04460986
Kr       0.00000000       0.00000000       1.82606061       0.00000000       0.00000000       0.04460986
2
Properties=species:S:1:pos:R:3:forces:R:3 energy=-0.12289228443349223 pbc="F F F"
Kr       0.00000000       0.00000000       0.00000000       0.00000000       0.00000000       0.00371754
Kr       0.00000000       0.00000000       1.88484848       0.00000000       0.00000000      -0.00371754
2
Properties=species:S:1:pos:R:3:forces:R:3 energy=-0.12154645412551462 pbc="F F F"
Kr       0.00000000       0.00000000       0.00000000       0.00000000       0.00000000       0.04047732
Kr       0.00000000       0.00000000       1.94363636       0.00000000       0.00000000      -0.04047732
2
Properties=species:S:1:pos:R:3:forces:R:3 energy=-0.11830451193906366 pbc="F F F"
Kr       0.00000000       0.00000000       0.00000000       0.00000000       0.00000000       0.06840342
Kr       0.00000000       0.00000000       2.00242424       0.00000000       0.00000000      -0.06840342
2
Properties=species:S:1:pos:R:3:forces:R:3 energy=-0.11367272440157417 pbc="F F F"
Kr       0.00000000       0.00000000       0.00000000       0.00000000       0.00000000       0.08770741
Kr       0.00000000       0.00000000       2.06121212       0.00000000       0.00000000      -0.08770741
2
Properties=species:S:1:pos:R:3:forces:R:3 energy=-0.10816308097131314 pbc="F F F"
Kr       0.00000000       0.00000000       0.00000000       0.00000000       0.00000000       0.09833679
Kr       0.00000000       0.00000000       2.12000000       0.00000000       0.00000000      -0.09833679
2
Properties=species:S:1:pos:R:3:forces:R:3 energy=-0.10226043996778278 pbc="F F F"
Kr       0.00000000       0.00000000       0.00000000       0.00000000       0.00000000       0.10136382
Kr       0.00000000       0.00000000       2.17878788       0.00000000       0.00000000      -0.10136382
2
Properties=species:S:1:pos:R:3:forces:R:3 energy=-0.09635283267299469 pbc="F F F"
Kr       0.00000000       0.00000000       0.00000000       0.00000000       0.00000000       0.09890170
Kr       0.00000000       0.00000000       2.23757576       0.00000000       0.00000000      -0.09890170
2
Properties=species:S:1:pos:R:3:forces:R:3 energy=-0.09069474015416253 pbc="F F F"
Kr       0.00000000       0.00000000       0.00000000       0.00000000       0.00000000       0.09321509
Kr       0.00000000       0.00000000       2.29636364       0.00000000       0.00000000      -0.09321509
2
Properties=species:S:1:pos:R:3:forces:R:3 energy=-0.08542301163264199 pbc="F F F"
Kr       0.00000000       0.00000000       0.00000000       0.00000000       0.00000000       0.08597029
Kr       0.00000000       0.00000000       2.35515152       0.00000000       0.00000000      -0.08597029
2
Properties=species:S:1:pos:R:3:forces:R:3 energy=-0.08060074113005283 pbc="F F F"
Kr       0.00000000       0.00000000       0.00000000       0.00000000       0.00000000       0.07798087
Kr       0.00000000       0.00000000       2.41393939       0.00000000       0.00000000      -0.07798087
2
Properties=species:S:1:pos:R:3:forces:R:3 energy=-0.07626895997694177 pbc="F F F"
Kr       0.00000000       0.00000000       0.00000000       0.00000000       0.00000000       0.06923389
Kr       0.00000000       0.00000000       2.47272727       0.00000000       0.00000000      -0.06923389
2
Properties=species:S:1:pos:R:3:forces:R:3 energy=-0.07248371817542656 pbc="F F F"
Kr       0.00000000       0.00000000       0.00000000       0.00000000       0.00000000       0.05929980
Kr       0.00000000       0.00000000       2.53151515       0.00000000       0.00000000      -0.05929980
2
Properties=species:S:1:pos:R:3:forces:R:3 energy=-0.06932936356369233 pbc="F F F"
Kr       0.00000000       0.00000000       0.00000000       0.00000000       0.00000000       0.04771367
Kr       0.00000000       0.00000000       2.59030303       0.00000000       0.00000000      -0.04771367
2
Properties=species:S:1:pos:R:3:forces:R:3 energy=-0.0669085975472752 pbc="F F F"
Kr       0.00000000       0.00000000       0.00000000       0.00000000       0.00000000       0.03437402
Kr       0.00000000       0.00000000       2.64909091       0.00000000       0.00000000      -0.03437402
2
Properties=species:S:1:pos:R:3:forces:R:3 energy=-0.06531177330930818 pbc="F F F"
Kr       0.00000000       0.00000000       0.00000000       0.00000000       0.00000000       0.01983382
Kr       0.00000000       0.00000000       2.70787879       0.00000000       0.00000000      -0.01983382
2
Properties=species:S:1:pos:R:3:forces:R:3 energy=-0.06457702534688771 pbc="F F F"
Kr       0.00000000       0.00000000       0.00000000       0.00000000       0.00000000       0.00528276
Kr       0.00000000       0.00000000       2.76666667       0.00000000       0.00000000      -0.00528276
2
Properties=species:S:1:pos:R:3:forces:R:3 energy=-0.0646620092418827 pbc="F F F"
Kr       0.00000000       0.00000000       0.00000000       0.00000000       0.00000000      -0.00781411
Kr       0.00000000       0.00000000       2.82545455       0.00000000       0.00000000       0.00781411
2
Properties=species:S:1:pos:R:3:forces:R:3 energy=-0.06544261590482137 pbc="F F F"
Kr       0.00000000       0.00000000       0.00000000       0.00000000       0.00000000      -0.01821855
Kr       0.00000000       0.00000000       2.88424242       0.00000000       0.00000000       0.01821855
2
Properties=species:S:1:pos:R:3:forces:R:3 energy=-0.06673770899789071 pbc="F F F"
Kr       0.00000000       0.00000000       0.00000000       0.00000000       0.00000000      -0.02525782
Kr       0.00000000       0.00000000       2.94303030       0.00000000       0.00000000       0.02525782
2
Properties=species:S:1:pos:R:3:forces:R:3 energy=-0.06834491960351782 pbc="F F F"
Kr       0.00000000       0.00000000       0.00000000       0.00000000       0.00000000      -0.02887269
Kr       0.00000000       0.00000000       3.00181818       0.00000000       0.00000000       0.02887269
2
Properties=species:S:1:pos:R:3:forces:R:3 energy=-0.07007304304771766 pbc="F F F"
Kr       0.00000000       0.00000000       0.00000000       0.00000000       0.00000000      -0.02946733
Kr       0.00000000       0.00000000       3.06060606       0.00000000       0.00000000       0.02946733
2
Properties=species:S:1:pos:R:3:forces:R:3 energy=-0.07176348093659617 pbc="F F F"
Kr       0.00000000       0.00000000       0.00000000       0.00000000       0.00000000      -0.02771452
Kr       0.00000000       0.00000000       3.11939394       0.00000000       0.00000000       0.02771452
2
Properties=species:S:1:pos:R:3:forces:R:3 energy=-0.07330100709483384 pbc="F F F"
Kr       0.00000000       0.00000000       0.00000000       0.00000000       0.00000000      -0.02439855
Kr       0.00000000       0.00000000       3.17818182       0.00000000       0.00000000       0.02439855
2
Properties=species:S:1:pos:R:3:forces:R:3 energy=-0.07461691563948261 pbc="F F F"
Kr       0.00000000       0.00000000       0.00000000       0.00000000       0.00000000      -0.02030202
Kr       0.00000000       0.00000000       3.23696970       0.00000000       0.00000000       0.02030202
2
Properties=species:S:1:pos:R:3:forces:R:3 energy=-0.07568641515265608 pbc="F F F"
Kr       0.00000000       0.00000000       0.00000000       0.00000000       0.00000000      -0.01611867
Kr       0.00000000       0.00000000       3.29575758       0.00000000       0.00000000       0.01611867
2
Properties=species:S:1:pos:R:3:forces:R:3 energy=-0.07652102278018413 pbc="F F F"
Kr       0.00000000       0.00000000       0.00000000       0.00000000       0.00000000      -0.01238524
Kr       0.00000000       0.00000000       3.35454545       0.00000000       0.00000000       0.01238524
2
Properties=species:S:1:pos:R:3:forces:R:3 energy=-0.07715814553259781 pbc="F F F"
Kr       0.00000000       0.00000000       0.00000000       0.00000000       0.00000000      -0.00943595
Kr       0.00000000       0.00000000       3.41333333       0.00000000       0.00000000       0.00943595
2
Properties=species:S:1:pos:R:3:forces:R:3 energy=-0.07764828913366198 pbc="F F F"
Kr       0.00000000       0.00000000       0.00000000       0.00000000       0.00000000      -0.00738836
Kr       0.00000000       0.00000000       3.47212121       0.00000000       0.00000000       0.00738836
2
Properties=species:S:1:pos:R:3:forces:R:3 energy=-0.07804305792237448 pbc="F F F"
Kr       0.00000000       0.00000000       0.00000000       0.00000000       0.00000000      -0.00616504
Kr       0.00000000       0.00000000       3.53090909       0.00000000       0.00000000       0.00616504
2
Properties=species:S:1:pos:R:3:forces:R:3 energy=-0.07838501572771003 pbc="F F F"
Kr       0.00000000       0.00000000       0.00000000       0.00000000       0.00000000      -0.00554610
Kr       0.00000000       0.00000000       3.58969697       0.00000000       0.00000000       0.00554610
2
Properties=species:S:1:pos:R:3:forces:R:3 energy=-0.07870128802325219 pbc="F F F"
Kr       0.00000000       0.00000000       0.00000000       0.00000000       0.00000000      -0.00524123
Kr       0.00000000       0.00000000       3.64848485       0.00000000       0.00000000       0.00524123
2
Properties=species:S:1:pos:R:3:forces:R:3 energy=-0.07900172181077263 pbc="F F F"
Kr       0.00000000       0.00000000       0.00000000       0.00000000       0.00000000      -0.00496217
Kr       0.00000000       0.00000000       3.70727273       0.00000000       0.00000000       0.00496217
2
Properties=species:S:1:pos:R:3:forces:R:3 energy=-0.07928070890657579 pbc="F F F"
Kr       0.00000000       0.00000000       0.00000000       0.00000000       0.00000000      -0.00447999
Kr       0.00000000       0.00000000       3.76606061       0.00000000       0.00000000       0.00447999
2
Properties=species:S:1:pos:R:3:forces:R:3 energy=-0.07952171997376564 pbc="F F F"
Kr       0.00000000       0.00000000       0.00000000       0.00000000       0.00000000      -0.00365658
Kr       0.00000000       0.00000000       3.82484848       0.00000000       0.00000000       0.00365658
2
Properties=species:S:1:pos:R:3:forces:R:3 energy=-0.07970304625651609 pbc="F F F"
Kr       0.00000000       0.00000000       0.00000000       0.00000000       0.00000000      -0.00244897
Kr       0.00000000       0.00000000       3.88363636       0.00000000       0.00000000       0.00244897
2
Properties=species:S:1:pos:R:3:forces:R:3 energy=-0.0798027970172446 pbc="F F F"
Kr       0.00000000       0.00000000       0.00000000       0.00000000       0.00000000      -0.00089277
Kr       0.00000000       0.00000000       3.94242424       0.00000000       0.00000000       0.00089277
2
Properties=species:S:1:pos:R:3:forces:R:3 energy=-0.07980286198904425 pbc="F F F"
Kr       0.00000000       0.00000000       0.00000000       0.00000000       0.00000000       0.00092527
Kr       0.00000000       0.00000000       4.00121212       0.00000000       0.00000000      -0.00092527
2
Properties=species:S:1:pos:R:3:forces:R:3 energy=-0.07969102162438266 pbc="F F F"
Kr       0.00000000       0.00000000       0.00000000       0.00000000       0.00000000       0.00289597
Kr       0.00000000       0.00000000       4.06000000       0.00000000       0.00000000      -0.00289597
2
Properties=species:S:1:pos:R:3:forces:R:3 energy=-0.07946153546096657 pbc="F F F"
Kr       0.00000000       0.00000000       0.00000000       0.00000000       0.00000000       0.00490939
Kr       0.00000000       0.00000000       4.11878788       0.00000000       0.00000000      -0.00490939
2
Properties=species:S:1:pos:R:3:forces:R:3 energy=-0.07911487108699172 pbc="F F F"
Kr       0.00000000       0.00000000       0.00000000       0.00000000       0.00000000       0.00686787
Kr       0.00000000       0.00000000       4.17757576       0.00000000       0.00000000      -0.00686787
2
Properties=species:S:1:pos:R:3:forces:R:3 energy=-0.07865678126908396 pbc="F F F"
Kr       0.00000000       0.00000000       0.00000000       0.00000000       0.00000000       0.00868760
Kr       0.00000000       0.00000000       4.23636364       0.00000000       0.00000000      -0.00868760
2
Properties=species:S:1:pos:R:3:forces:R:3 energy=-0.07809761187125187 pbc="F F F"
Kr       0.00000000       0.00000000       0.00000000       0.00000000       0.00000000       0.01029394
Kr       0.00000000       0.00000000       4.29515152       0.00000000       0.00000000      -0.01029394
2
Properties=species:S:1:pos:R:3:forces:R:3 energy=-0.07745209212369387 pbc="F F F"
Kr       0.00000000       0.00000000       0.00000000       0.00000000       0.00000000       0.01161257
Kr       0.00000000       0.00000000       4.35393939       0.00000000       0.00000000      -0.01161257
2
Properties=species:S:1:pos:R:3:forces:R:3 energy=-0.07673943816996372 pbc="F F F"
Kr       0.00000000       0.00000000       0.00000000       0.00000000       0.00000000       0.01256399
Kr       0.00000000       0.00000000       4.41272727       0.00000000       0.00000000      -0.01256399
2
Properties=species:S:1:pos:R:3:forces:R:3 energy=-0.07598369954547617 pbc="F F F"
Kr       0.00000000       0.00000000       0.00000000       0.00000000       0.00000000       0.01306501
Kr       0.00000000       0.00000000       4.47151515       0.00000000       0.00000000      -0.01306501
2
Properties=species:S:1:pos:R:3:forces:R:3 energy=-0.07521359749460646 pbc="F F F"
Kr       0.00000000       0.00000000       0.00000000       0.00000000       0.00000000       0.01304185
Kr       0.00000000       0.00000000       4.53030303       0.00000000       0.00000000      -0.01304185
2
Properties=species:S:1:pos:R:3:forces:R:3 energy=-0.07446142668252166 pbc="F F F"
Kr       0.00000000       0.00000000       0.00000000       0.00000000       0.00000000       0.01245215
Kr       0.00000000       0.00000000       4.58909091       0.00000000       0.00000000      -0.01245215
2
Properties=species:S:1:pos:R:3:forces:R:3 energy=-0.07376042018051725 pbc="F F F"
Kr       0.00000000       0.00000000       0.00000000       0.00000000       0.00000000       0.01130940
Kr       0.00000000       0.00000000       4.64787879       0.00000000       0.00000000      -0.01130940
2
Properties=species:S:1:pos:R:3:forces:R:3 energy=-0.0731409442722179 pbc="F F F"
Kr       0.00000000       0.00000000       0.00000000       0.00000000       0.00000000       0.00969860
Kr       0.00000000       0.00000000       4.70666667       0.00000000       0.00000000      -0.00969860
2
Properties=species:S:1:pos:R:3:forces:R:3 energy=-0.07262625933421316 pbc="F F F"
Kr       0.00000000       0.00000000       0.00000000       0.00000000       0.00000000       0.00777500
Kr       0.00000000       0.00000000       4.76545455       0.00000000       0.00000000      -0.00777500
2
Properties=species:S:1:pos:R:3:forces:R:3 energy=-0.07222895176891425 pbc="F F F"
Kr       0.00000000       0.00000000       0.00000000       0.00000000       0.00000000       0.00574163
Kr       0.00000000       0.00000000       4.82424242       0.00000000       0.00000000      -0.00574163
2
Properties=species:S:1:pos:R:3:forces:R:3 energy=-0.07194906117898417 pbc="F F F"
Kr       0.00000000       0.00000000       0.00000000       0.00000000       0.00000000       0.00381481
Kr       0.00000000       0.00000000       4.88303030       0.00000000       0.00000000      -0.00381481
2
Properties=species:S:1:pos:R:3:forces:R:3 energy=-0.07177457660740653 pbc="F F F"
Kr       0.00000000       0.00000000       0.00000000       0.00000000       0.00000000       0.00218480
Kr       0.00000000       0.00000000       4.94181818       0.00000000       0.00000000      -0.00218480
2
Properties=species:S:1:pos:R:3:forces:R:3 energy=-0.07168364155536872 pbc="F F F"
Kr       0.00000000       0.00000000       0.00000000       0.00000000       0.00000000       0.00098882
Kr       0.00000000       0.00000000       5.00060606       0.00000000       0.00000000      -0.00098882
2
Properties=species:S:1:pos:R:3:forces:R:3 energy=-0.07164845733654344 pbc="F F F"
Kr       0.00000000       0.00000000       0.00000000       0.00000000       0.00000000       0.00029461
Kr       0.00000000       0.00000000       5.05939394       0.00000000       0.00000000      -0.00029461
2
Properties=species:S:1:pos:R:3:forces:R:3 energy=-0.07163916832038264 pbc="F F F"
Kr       0.00000000       0.00000000       0.00000000       0.00000000       0.00000000       0.00010018
Kr       0.00000000       0.00000000       5.11818182       0.00000000       0.00000000      -0.00010018
2
Properties=species:S:1:pos:R:3:forces:R:3 energy=-0.07162806363260356 pbc="F F F"
Kr       0.00000000       0.00000000       0.00000000       0.00000000       0.00000000       0.00034227
Kr       0.00000000       0.00000000       5.17696970       0.00000000       0.00000000      -0.00034227
2
Properties=species:S:1:pos:R:3:forces:R:3 energy=-0.07159247960980977 pbc="F F F"
Kr       0.00000000       0.00000000       0.00000000       0.00000000       0.00000000       0.00091170
Kr       0.00000000       0.00000000       5.23575758       0.00000000       0.00000000      -0.00091170
2
Properties=species:S:1:pos:R:3:forces:R:3 energy=-0.07151711329325981 pbc="F F F"
Kr       0.00000000       0.00000000       0.00000000       0.00000000       0.00000000       0.00167240
Kr       0.00000000       0.00000000       5.29454545       0.00000000       0.00000000      -0.00167240
2
Properties=species:S:1:pos:R:3:forces:R:3 energy=-0.0713949102048988 pbc="F F F"
Kr       0.00000000       0.00000000       0.00000000       0.00000000       0.00000000       0.00248176
Kr       0.00000000       0.00000000       5.35333333       0.00000000       0.00000000      -0.00248176
2
Properties=species:S:1:pos:R:3:forces:R:3 energy=-0.07122690194549935 pbc="F F F"
Kr       0.00000000       0.00000000       0.00000000       0.00000000       0.00000000       0.00321125
Kr       0.00000000       0.00000000       5.41212121       0.00000000       0.00000000      -0.00321125
2
Properties=species:S:1:pos:R:3:forces:R:3 energy=-0.07102084083152055 pbc="F F F"
Kr       0.00000000       0.00000000       0.00000000       0.00000000       0.00000000       0.00376371
Kr       0.00000000       0.00000000       5.47090909       0.00000000       0.00000000      -0.00376371
2
Properties=species:S:1:pos:R:3:forces:R:3 energy=-0.07078896994163685 pbc="F F F"
Kr       0.00000000       0.00000000       0.00000000       0.00000000       0.00000000       0.00408361
Kr       0.00000000       0.00000000       5.52969697       0.00000000       0.00000000      -0.00408361
2
Properties=species:S:1:pos:R:3:forces:R:3 energy=-0.07054549875583786 pbc="F F F"
Kr       0.00000000       0.00000000       0.00000000       0.00000000       0.00000000       0.00416036
Kr       0.00000000       0.00000000       5.58848485       0.00000000       0.00000000      -0.00416036
2
Properties=species:S:1:pos:R:3:forces:R:3 energy=-0.07030406151750046 pbc="F F F"
Kr       0.00000000       0.00000000       0.00000000       0.00000000       0.00000000       0.00402284
Kr       0.00000000       0.00000000       5.64727273       0.00000000       0.00000000      -0.00402284
2
Properties=species:S:1:pos:R:3:forces:R:3 energy=-0.07007561010500196 pbc="F F F"
Kr       0.00000000       0.00000000       0.00000000       0.00000000       0.00000000       0.00372810
Kr       0.00000000       0.00000000       5.70606061       0.00000000       0.00000000      -0.00372810
2
Properties=species:S:1:pos:R:3:forces:R:3 energy=-0.06986735335042805 pbc="F F F"
Kr       0.00000000       0.00000000       0.00000000       0.00000000       0.00000000       0.00334535
Kr       0.00000000       0.00000000       5.76484848       0.00000000       0.00000000      -0.00334535
2
Properties=species:S:1:pos:R:3:forces:R:3 energy=-0.06968258290437465 pbc="F F F"
Kr       0.00000000       0.00000000       0.00000000       0.00000000       0.00000000       0.00294305
Kr       0.00000000       0.00000000       5.82363636       0.00000000       0.00000000      -0.00294305
2
Properties=species:S:1:pos:R:3:forces:R:3 energy=-0.06952067494485084 pbc="F F F"
Kr       0.00000000       0.00000000       0.00000000       0.00000000       0.00000000       0.00257745
Kr       0.00000000       0.00000000       5.88242424       0.00000000       0.00000000      -0.00257745
2
Properties=species:S:1:pos:R:3:forces:R:3 energy=-0.06937807432088139 pbc="F F F"
Kr       0.00000000       0.00000000       0.00000000       0.00000000       0.00000000       0.00228762
Kr       0.00000000       0.00000000       5.94121212       0.00000000       0.00000000      -0.00228762
2
Properties=species:S:1:pos:R:3:forces:R:3 energy=-0.06924976731860122 pbc="F F F"
Kr       0.00000000       0.00000000       0.00000000       0.00000000       0.00000000       0.00209550
Kr       0.00000000       0.00000000       6.00000000       0.00000000       0.00000000      -0.00209550
