2
Properties=species:S:1:pos:R:3:forces:R:3 energy=125.40039072809259 pbc="F F F"
Li       0.00000000       0.00000000       0.00000000       0.00000000       0.00000000   -1507.47680664
Li       0.00000000       0.00000000       0.18000000       0.00000000       0.00000000    1507.47680664
2
Properties=species:S:1:pos:R:3:forces:R:3 energy=65.95525370416681 pbc="F F F"
Li       0.00000000       0.00000000       0.00000000       0.00000000       0.00000000    -658.26275635
Li       0.00000000       0.00000000       0.23878788       0.00000000       0.00000000     658.26275635
2
Properties=species:S:1:pos:R:3:forces:R:3 energy=38.34461222467461 pbc="F F F"
Li       0.00000000       0.00000000       0.00000000       0.00000000       0.00000000    -327.38540649
Li       0.00000000       0.00000000       0.29757576       0.00000000       0.00000000     327.38540649
2
Properties=species:S:1:pos:R:3:forces:R:3 energy=24.03412257171751 pbc="F F F"
Li       0.00000000       0.00000000       0.00000000       0.00000000       0.00000000    -177.54899597
Li       0.00000000       0.00000000       0.35636364       0.00000000       0.00000000     177.54899597
2
Properties=species:S:1:pos:R:3:forces:R:3 energy=16.046756853812994 pbc="F F F"
Li       0.00000000       0.00000000       0.00000000       0.00000000       0.00000000    -102.18177795
Li       0.00000000       0.00000000       0.41515152       0.00000000       0.00000000     102.18177795
2
Properties=species:S:1:pos:R:3:forces:R:3 energy=11.360536692665168 pbc="F F F"
Li       0.00000000       0.00000000       0.00000000       0.00000000       0.00000000     -61.15882874
Li       0.00000000       0.00000000       0.47393939       0.00000000       0.00000000      61.15882874
2
Properties=species:S:1:pos:R:3:forces:R:3 energy=8.516806734081012 pbc="F F F"
Li       0.00000000       0.00000000       0.00000000       0.00000000       0.00000000     -37.73031235
Li       0.00000000       0.00000000       0.53272727       0.00000000       0.00000000      37.73031235
2
Properties=species:S:1:pos:R:3:forces:R:3 energy=6.725340523309087 pbc="F F F"
Li       0.00000000       0.00000000       0.00000000       0.00000000       0.00000000     -24.58404541
Li       0.00000000       0.00000000       0.59151515       0.00000000       0.00000000      24.58404541
2
Properties=species:S:1:pos:R:3:forces:R:3 energy=5.490170680115872 pbc="F F F"
Li       0.00000000       0.00000000       0.00000000       0.00000000       0.00000000     -18.42093849
Li       0.00000000       0.00000000       0.65030303       0.00000000       0.00000000      18.42093849
2
Properties=species:S:1:pos:R:3:forces:R:3 energy=4.465404304648047 pbc="F F F"
Li       0.00000000       0.00000000       0.00000000       0.00000000       0.00000000     -17.01242256
Li       0.00000000       0.00000000       0.70909091       0.00000000       0.00000000      17.01242256
2
Properties=species:S:1:pos:R:3:forces:R:3 energy=3.4622246205967 pbc="F F F"
Li       0.00000000       0.00000000       0.00000000       0.00000000       0.00000000     -16.97463799
Li       0.00000000       0.00000000       0.76787879       0.00000000       0.00000000      16.97463799
2
Properties=species:S:1:pos:R:3:forces:R:3 energy=2.510212712163321 pbc="F F F"
Li       0.00000000       0.00000000       0.00000000       0.00000000       0.00000000     -15.14773750
Li       0.00000000       0.00000000       0.82666667       0.00000000       0.00000000      15.14773750
2
Properties=species:S:1:pos:R:3:forces:R:3 energy=1.6835208295712714 pbc="F F F"
Li       0.00000000       0.00000000       0.00000000       0.00000000       0.00000000     -12.93219280
Li       0.00000000       0.00000000       0.88545455       0.00000000       0.00000000      12.93219280
2
Properties=species:S:1:pos:R:3:forces:R:3 energy=1.035753117804048 pbc="F F F"
Li       0.00000000       0.00000000       0.00000000       0.00000000       0.00000000      -8.57483768
Li       0.00000000       0.00000000       0.94424242       0.00000000       0.00000000       8.57483768
2
Properties=species:S:1:pos:R:3:forces:R:3 energy=0.701884624656968 pbc="F F F"
Li       0.00000000       0.00000000       0.00000000       0.00000000       0.00000000      -2.90648913
Li       0.00000000       0.00000000       1.00303030       0.00000000       0.00000000       2.90648913
2
Properties=species:S:1:pos:R:3:forces:R:3 energy=0.6588523150189095 pbc="F F F"
Li       0.00000000       0.00000000       0.00000000       0.00000000       0.00000000       1.06590950
Li       0.00000000       0.00000000       1.06181818       0.00000000       0.00000000      -1.06590950
2
Properties=species:S:1:pos:R:3:forces:R:3 energy=0.7804734951052825 pbc="F F F"
Li       0.00000000       0.00000000       0.00000000       0.00000000       0.00000000       2.66944695
Li       0.00000000       0.00000000       1.12060606       0.00000000       0.00000000      -2.66944695
2
Properties=species:S:1:pos:R:3:forces:R:3 energy=0.9289174781804895 pbc="F F F"
Li       0.00000000       0.00000000       0.00000000       0.00000000       0.00000000       2.06443453
Li       0.00000000       0.00000000       1.17939394       0.00000000       0.00000000      -2.06443453
2
Properties=species:S:1:pos:R:3:forces:R:3 energy=0.9965513878020906 pbc="F F F"
Li       0.00000000       0.00000000       0.00000000       0.00000000       0.00000000       0.12022390
Li       0.00000000       0.00000000       1.23818182       0.00000000       0.00000000      -0.12022390
2
Properties=species:S:1:pos:R:3:forces:R:3 energy=0.945332563193991 pbc="F F F"
Li       0.00000000       0.00000000       0.00000000       0.00000000       0.00000000      -1.71653366
Li       0.00000000       0.00000000       1.29696970       0.00000000       0.00000000       1.71653366
2
Properties=species:S:1:pos:R:3:forces:R:3 energy=0.8172224570343063 pbc="F F F"
Li       0.00000000       0.00000000       0.00000000       0.00000000       0.00000000      -2.47329664
Li       0.00000000       0.00000000       1.35575758       0.00000000       0.00000000       2.47329664
2
Properties=species:S:1:pos:R:3:forces:R:3 energy=0.6665973445463061 pbc="F F F"
Li       0.00000000       0.00000000       0.00000000       0.00000000       0.00000000      -2.60624266
Li       0.00000000       0.00000000       1.41454545       0.00000000       0.00000000       2.60624266
2
Properties=species:S:1:pos:R:3:forces:R:3 energy=0.5122124085838562 pbc="F F F"
Li       0.00000000       0.00000000       0.00000000       0.00000000       0.00000000      -2.65292692
Li       0.00000000       0.00000000       1.47333333       0.00000000       0.00000000       2.65292692
2
Properties=species:S:1:pos:R:3:forces:R:3 energy=0.3533188935994179 pbc="F F F"
Li       0.00000000       0.00000000       0.00000000       0.00000000       0.00000000      -2.76275158
Li       0.00000000       0.00000000       1.53212121       0.00000000       0.00000000       2.76275158
2
Properties=species:S:1:pos:R:3:forces:R:3 energy=0.1868948690294972 pbc="F F F"
Li       0.00000000       0.00000000       0.00000000       0.00000000       0.00000000      -2.89711905
Li       0.00000000       0.00000000       1.59090909       0.00000000       0.00000000       2.89711905
2
Properties=species:S:1:pos:R:3:forces:R:3 energy=0.013495406172415965 pbc="F F F"
Li       0.00000000       0.00000000       0.00000000       0.00000000       0.00000000      -2.99142933
Li       0.00000000       0.00000000       1.64969697       0.00000000       0.00000000       2.99142933
2
Properties=species:S:1:pos:R:3:forces:R:3 energy=-0.16331499278636163 pbc="F F F"
Li       0.00000000       0.00000000       0.00000000       0.00000000       0.00000000      -3.00943422
Li       0.00000000       0.00000000       1.70848485       0.00000000       0.00000000       3.00943422
2
Properties=species:S:1:pos:R:3:forces:R:3 energy=-0.3386087346675704 pbc="F F F"
Li       0.00000000       0.00000000       0.00000000       0.00000000       0.00000000      -2.93979311
Li       0.00000000       0.00000000       1.76727273       0.00000000       0.00000000       2.93979311
2
Properties=species:S:1:pos:R:3:forces:R:3 energy=-0.5074175585011866 pbc="F F F"
Li       0.00000000       0.00000000       0.00000000       0.00000000       0.00000000      -2.79154873
Li       0.00000000       0.00000000       1.82606061       0.00000000       0.00000000       2.79154873
2
Properties=species:S:1:pos:R:3:forces:R:3 energy=-0.6656348934115045 pbc="F F F"
Li       0.00000000       0.00000000       0.00000000       0.00000000       0.00000000      -2.58219099
Li       0.00000000       0.00000000       1.88484848       0.00000000       0.00000000       2.58219099
2
Properties=species:S:1:pos:R:3:forces:R:3 energy=-0.8100547649030524 pbc="F F F"
Li       0.00000000       0.00000000       0.00000000       0.00000000       0.00000000      -2.32333231
Li       0.00000000       0.00000000       1.94363636       0.00000000       0.00000000       2.32333231
2
Properties=species:S:1:pos:R:3:forces:R:3 energy=-0.9379610814281998 pbc="F F F"
Li       0.00000000       0.00000000       0.00000000       0.00000000       0.00000000      -2.02187991
Li       0.00000000       0.00000000       2.00242424       0.00000000       0.00000000       2.02187991
2
Properties=species:S:1:pos:R:3:forces:R:3 energy=-1.0472484859722624 pbc="F F F"
Li       0.00000000       0.00000000       0.00000000       0.00000000       0.00000000      -1.69404685
Li       0.00000000       0.00000000       2.06121212       0.00000000       0.00000000       1.69404685
2
Properties=species:S:1:pos:R:3:forces:R:3 energy=-1.1372610335872442 pbc="F F F"
Li       0.00000000       0.00000000       0.00000000       0.00000000       0.00000000      -1.37253237
Li       0.00000000       0.00000000       2.12000000       0.00000000       0.00000000       1.37253237
2
Properties=species:S:1:pos:R:3:forces:R:3 energy=-1.2094544966138028 pbc="F F F"
Li       0.00000000       0.00000000       0.00000000       0.00000000       0.00000000      -1.09260511
Li       0.00000000       0.00000000       2.17878788       0.00000000       0.00000000       1.09260511
2
Properties=species:S:1:pos:R:3:forces:R:3 energy=-1.2668643585486024 pbc="F F F"
Li       0.00000000       0.00000000       0.00000000       0.00000000       0.00000000      -0.86991018
Li       0.00000000       0.00000000       2.23757576       0.00000000       0.00000000       0.86991018
2
Properties=species:S:1:pos:R:3:forces:R:3 energy=-1.3126822622259604 pbc="F F F"
Li       0.00000000       0.00000000       0.00000000       0.00000000       0.00000000      -0.69519573
Li       0.00000000       0.00000000       2.29636364       0.00000000       0.00000000       0.69519573
2
Properties=species:S:1:pos:R:3:forces:R:3 energy=-1.3491417882668986 pbc="F F F"
Li       0.00000000       0.00000000       0.00000000       0.00000000       0.00000000      -0.54819447
Li       0.00000000       0.00000000       2.35515152       0.00000000       0.00000000       0.54819447
2
Properties=species:S:1:pos:R:3:forces:R:3 energy=-1.3773576690100597 pbc="F F F"
Li       0.00000000       0.00000000       0.00000000       0.00000000       0.00000000      -0.41283181
Li       0.00000000       0.00000000       2.41393939       0.00000000       0.00000000       0.41283181
2
Properties=species:S:1:pos:R:3:forces:R:3 energy=-1.3977741452412025 pbc="F F F"
Li       0.00000000       0.00000000       0.00000000       0.00000000       0.00000000      -0.28245643
Li       0.00000000       0.00000000       2.47272727       0.00000000       0.00000000       0.28245643
2
Properties=species:S:1:pos:R:3:forces:R:3 energy=-1.4106657864335101 pbc="F F F"
Li       0.00000000       0.00000000       0.00000000       0.00000000       0.00000000      -0.15716128
Li       0.00000000       0.00000000       2.53151515       0.00000000       0.00000000       0.15716128
2
Properties=species:S:1:pos:R:3:forces:R:3 energy=-1.416399530701262 pbc="F F F"
Li       0.00000000       0.00000000       0.00000000       0.00000000       0.00000000      -0.03932768
Li       0.00000000       0.00000000       2.59030303       0.00000000       0.00000000       0.03932768
2
Properties=species:S:1:pos:R:3:forces:R:3 energy=-1.4154735124546276 pbc="F F F"
Li       0.00000000       0.00000000       0.00000000       0.00000000       0.00000000       0.06917235
Li       0.00000000       0.00000000       2.64909091       0.00000000       0.00000000      -0.06917235
2
Properties=species:S:1:pos:R:3:forces:R:3 energy=-1.4084682026389141 pbc="F F F"
Li       0.00000000       0.00000000       0.00000000       0.00000000       0.00000000       0.16736995
Li       0.00000000       0.00000000       2.70787879       0.00000000       0.00000000      -0.16736995
2
Properties=species:S:1:pos:R:3:forces:R:3 energy=-1.3960130135441353 pbc="F F F"
Li       0.00000000       0.00000000       0.00000000       0.00000000       0.00000000       0.25439563
Li       0.00000000       0.00000000       2.76666667       0.00000000       0.00000000      -0.25439563
2
Properties=species:S:1:pos:R:3:forces:R:3 energy=-1.3788148599367533 pbc="F F F"
Li       0.00000000       0.00000000       0.00000000       0.00000000       0.00000000       0.32823944
Li       0.00000000       0.00000000       2.82545455       0.00000000       0.00000000      -0.32823944
2
Properties=species:S:1:pos:R:3:forces:R:3 energy=-1.3577540569486664 pbc="F F F"
Li       0.00000000       0.00000000       0.00000000       0.00000000       0.00000000       0.38495949
Li       0.00000000       0.00000000       2.88424242       0.00000000       0.00000000      -0.38495949
2
Properties=species:S:1:pos:R:3:forces:R:3 energy=-1.3340071095319777 pbc="F F F"
Li       0.00000000       0.00000000       0.00000000       0.00000000       0.00000000       0.41839379
Li       0.00000000       0.00000000       2.94303030       0.00000000       0.00000000      -0.41839379
2
Properties=species:S:1:pos:R:3:forces:R:3 energy=-1.3091895435506895 pbc="F F F"
Li       0.00000000       0.00000000       0.00000000       0.00000000       0.00000000       0.41964629
Li       0.00000000       0.00000000       3.00181818       0.00000000       0.00000000      -0.41964629
2
Properties=species:S:1:pos:R:3:forces:R:3 energy=-1.2855170998815346 pbc="F F F"
Li       0.00000000       0.00000000       0.00000000       0.00000000       0.00000000       0.37771118
Li       0.00000000       0.00000000       3.06060606       0.00000000       0.00000000      -0.37771118
2
Properties=species:S:1:pos:R:3:forces:R:3 energy=-1.2656902073781446 pbc="F F F"
Li       0.00000000       0.00000000       0.00000000       0.00000000       0.00000000       0.29066187
Li       0.00000000       0.00000000       3.11939394       0.00000000       0.00000000      -0.29066187
2
Properties=species:S:1:pos:R:3:forces:R:3 energy=-1.2515563498956923 pbc="F F F"
Li       0.00000000       0.00000000       0.00000000       0.00000000       0.00000000       0.19438517
Li       0.00000000       0.00000000       3.17818182       0.00000000       0.00000000      -0.19438517
2
Properties=species:S:1:pos:R:3:forces:R:3 energy=-1.2415887883988397 pbc="F F F"
Li       0.00000000       0.00000000       0.00000000       0.00000000       0.00000000       0.15999553
Li       0.00000000       0.00000000       3.23696970       0.00000000       0.00000000      -0.15999553
2
Properties=species:S:1:pos:R:3:forces:R:3 energy=-1.2309352463452652 pbc="F F F"
Li       0.00000000       0.00000000       0.00000000       0.00000000       0.00000000       0.21491417
Li       0.00000000       0.00000000       3.29575758       0.00000000       0.00000000      -0.21491417
2
Properties=species:S:1:pos:R:3:forces:R:3 energy=-1.2154745471533337 pbc="F F F"
Li       0.00000000       0.00000000       0.00000000       0.00000000       0.00000000       0.31299883
Li       0.00000000       0.00000000       3.35454545       0.00000000       0.00000000      -0.31299883
2
Properties=species:S:1:pos:R:3:forces:R:3 energy=-1.1943510123384176 pbc="F F F"
Li       0.00000000       0.00000000       0.00000000       0.00000000       0.00000000       0.40131861
Li       0.00000000       0.00000000       3.41333333       0.00000000       0.00000000      -0.40131861
2
Properties=species:S:1:pos:R:3:forces:R:3 energy=-1.168901658719976 pbc="F F F"
Li       0.00000000       0.00000000       0.00000000       0.00000000       0.00000000       0.45911932
Li       0.00000000       0.00000000       3.47212121       0.00000000       0.00000000      -0.45911932
2
Properties=species:S:1:pos:R:3:forces:R:3 energy=-1.1409482498525554 pbc="F F F"
Li       0.00000000       0.00000000       0.00000000       0.00000000       0.00000000       0.48757881
Li       0.00000000       0.00000000       3.53090909       0.00000000       0.00000000      -0.48757881
2
Properties=species:S:1:pos:R:3:forces:R:3 energy=-1.1119973552807376 pbc="F F F"
Li       0.00000000       0.00000000       0.00000000       0.00000000       0.00000000       0.49442211
Li       0.00000000       0.00000000       3.58969697       0.00000000       0.00000000      -0.49442211
2
Properties=species:S:1:pos:R:3:forces:R:3 energy=-1.0830895100781692 pbc="F F F"
Li       0.00000000       0.00000000       0.00000000       0.00000000       0.00000000       0.48724487
Li       0.00000000       0.00000000       3.64848485       0.00000000       0.00000000      -0.48724487
2
Properties=species:S:1:pos:R:3:forces:R:3 energy=-1.054867375040191 pbc="F F F"
Li       0.00000000       0.00000000       0.00000000       0.00000000       0.00000000       0.47193062
Li       0.00000000       0.00000000       3.70727273       0.00000000       0.00000000      -0.47193062
2
Properties=species:S:1:pos:R:3:forces:R:3 energy=-1.0276787969457633 pbc="F F F"
Li       0.00000000       0.00000000       0.00000000       0.00000000       0.00000000       0.45264161
Li       0.00000000       0.00000000       3.76606061       0.00000000       0.00000000      -0.45264161
2
Properties=species:S:1:pos:R:3:forces:R:3 energy=-1.0016710683743637 pbc="F F F"
Li       0.00000000       0.00000000       0.00000000       0.00000000       0.00000000       0.43211985
Li       0.00000000       0.00000000       3.82484848       0.00000000       0.00000000      -0.43211985
2
Properties=species:S:1:pos:R:3:forces:R:3 energy=-0.9768635700956947 pbc="F F F"
Li       0.00000000       0.00000000       0.00000000       0.00000000       0.00000000       0.41198885
Li       0.00000000       0.00000000       3.88363636       0.00000000       0.00000000      -0.41198885
2
Properties=species:S:1:pos:R:3:forces:R:3 energy=-0.9532073557355851 pbc="F F F"
Li       0.00000000       0.00000000       0.00000000       0.00000000       0.00000000       0.39304394
Li       0.00000000       0.00000000       3.94242424       0.00000000       0.00000000      -0.39304394
2
Properties=species:S:1:pos:R:3:forces:R:3 energy=-0.9306237265189767 pbc="F F F"
Li       0.00000000       0.00000000       0.00000000       0.00000000       0.00000000       0.37549564
Li       0.00000000       0.00000000       4.00121212       0.00000000       0.00000000      -0.37549564
2
Properties=species:S:1:pos:R:3:forces:R:3 energy=-0.9090344353870864 pbc="F F F"
Li       0.00000000       0.00000000       0.00000000       0.00000000       0.00000000       0.35917127
Li       0.00000000       0.00000000       4.06000000       0.00000000       0.00000000      -0.35917127
2
Properties=species:S:1:pos:R:3:forces:R:3 energy=-0.8883778025470108 pbc="F F F"
Li       0.00000000       0.00000000       0.00000000       0.00000000       0.00000000       0.34368137
Li       0.00000000       0.00000000       4.11878788       0.00000000       0.00000000      -0.34368137
2
Properties=species:S:1:pos:R:3:forces:R:3 energy=-0.8686184496443005 pbc="F F F"
Li       0.00000000       0.00000000       0.00000000       0.00000000       0.00000000       0.32855505
Li       0.00000000       0.00000000       4.17757576       0.00000000       0.00000000      -0.32855505
2
Properties=species:S:1:pos:R:3:forces:R:3 energy=-0.8497491131731222 pbc="F F F"
Li       0.00000000       0.00000000       0.00000000       0.00000000       0.00000000       0.31334734
Li       0.00000000       0.00000000       4.23636364       0.00000000       0.00000000      -0.31334734
2
Properties=species:S:1:pos:R:3:forces:R:3 energy=-0.8317843737413952 pbc="F F F"
Li       0.00000000       0.00000000       0.00000000       0.00000000       0.00000000       0.29772806
Li       0.00000000       0.00000000       4.29515152       0.00000000       0.00000000      -0.29772806
2
Properties=species:S:1:pos:R:3:forces:R:3 energy=-0.8147549194418268 pbc="F F F"
Li       0.00000000       0.00000000       0.00000000       0.00000000       0.00000000       0.28153706
Li       0.00000000       0.00000000       4.35393939       0.00000000       0.00000000      -0.28153706
2
Properties=species:S:1:pos:R:3:forces:R:3 energy=-0.7986936490501881 pbc="F F F"
Li       0.00000000       0.00000000       0.00000000       0.00000000       0.00000000       0.26479369
Li       0.00000000       0.00000000       4.41272727       0.00000000       0.00000000      -0.26479369
2
Properties=species:S:1:pos:R:3:forces:R:3 energy=-0.7836286485167321 pbc="F F F"
Li       0.00000000       0.00000000       0.00000000       0.00000000       0.00000000       0.24768344
Li       0.00000000       0.00000000       4.47151515       0.00000000       0.00000000      -0.24768344
2
Properties=species:S:1:pos:R:3:forces:R:3 energy=-0.7695731520432936 pbc="F F F"
Li       0.00000000       0.00000000       0.00000000       0.00000000       0.00000000       0.23051181
Li       0.00000000       0.00000000       4.53030303       0.00000000       0.00000000      -0.23051181
2
Properties=species:S:1:pos:R:3:forces:R:3 energy=-0.7565201255642116 pbc="F F F"
Li       0.00000000       0.00000000       0.00000000       0.00000000       0.00000000       0.21364869
Li       0.00000000       0.00000000       4.58909091       0.00000000       0.00000000      -0.21364869
2
Properties=species:S:1:pos:R:3:forces:R:3 energy=-0.7444398177882002 pbc="F F F"
Li       0.00000000       0.00000000       0.00000000       0.00000000       0.00000000       0.19748408
Li       0.00000000       0.00000000       4.64787879       0.00000000       0.00000000      -0.19748408
2
Properties=species:S:1:pos:R:3:forces:R:3 energy=-0.7332798704881495 pbc="F F F"
Li       0.00000000       0.00000000       0.00000000       0.00000000       0.00000000       0.18238038
Li       0.00000000       0.00000000       4.70666667       0.00000000       0.00000000      -0.18238038
2
Properties=species:S:1:pos:R:3:forces:R:3 energy=-0.7229695311760277 pbc="F F F"
Li       0.00000000       0.00000000       0.00000000       0.00000000       0.00000000       0.16863969
Li       0.00000000       0.00000000       4.76545455       0.00000000       0.00000000      -0.16863969
2
Properties=species:S:1:pos:R:3:forces:R:3 energy=-0.713420899632731 pbc="F F F"
Li       0.00000000       0.00000000       0.00000000       0.00000000       0.00000000       0.15646973
Li       0.00000000       0.00000000       4.82424242       0.00000000       0.00000000      -0.15646973
2
Properties=species:S:1:pos:R:3:forces:R:3 energy=-0.7045397656180471 pbc="F F F"
Li       0.00000000       0.00000000       0.00000000       0.00000000       0.00000000       0.14597115
Li       0.00000000       0.00000000       4.88303030       0.00000000       0.00000000      -0.14597115
2
Properties=species:S:1:pos:R:3:forces:R:3 energy=-0.6962262504345657 pbc="F F F"
Li       0.00000000       0.00000000       0.00000000       0.00000000       0.00000000       0.13711406
Li       0.00000000       0.00000000       4.94181818       0.00000000       0.00000000      -0.13711406
2
Properties=species:S:1:pos:R:3:forces:R:3 energy=-0.6883888822953934 pbc="F F F"
Li       0.00000000       0.00000000       0.00000000       0.00000000       0.00000000       0.12975033
Li       0.00000000       0.00000000       5.00060606       0.00000000       0.00000000      -0.12975033
2
Properties=species:S:1:pos:R:3:forces:R:3 energy=-0.6809464602432873 pbc="F F F"
Li       0.00000000       0.00000000       0.00000000       0.00000000       0.00000000       0.12361009
Li       0.00000000       0.00000000       5.05939394       0.00000000       0.00000000      -0.12361009
2
Properties=species:S:1:pos:R:3:forces:R:3 energy=-0.6738385192255574 pbc="F F F"
Li       0.00000000       0.00000000       0.00000000       0.00000000       0.00000000       0.11832563
Li       0.00000000       0.00000000       5.11818182       0.00000000       0.00000000      -0.11832563
2
Properties=species:S:1:pos:R:3:forces:R:3 energy=-0.6670263215343076 pbc="F F F"
Li       0.00000000       0.00000000       0.00000000       0.00000000       0.00000000       0.11345859
Li       0.00000000       0.00000000       5.17696970       0.00000000       0.00000000      -0.11345859
2
Properties=species:S:1:pos:R:3:forces:R:3 energy=-0.6604994536671305 pbc="F F F"
Li       0.00000000       0.00000000       0.00000000       0.00000000       0.00000000       0.10855377
Li       0.00000000       0.00000000       5.23575758       0.00000000       0.00000000      -0.10855377
2
Properties=species:S:1:pos:R:3:forces:R:3 energy=-0.6542719419377543 pbc="F F F"
Li       0.00000000       0.00000000       0.00000000       0.00000000       0.00000000       0.10320129
Li       0.00000000       0.00000000       5.29454545       0.00000000       0.00000000      -0.10320129
2
Properties=species:S:1:pos:R:3:forces:R:3 energy=-0.6483801862404194 pbc="F F F"
Li       0.00000000       0.00000000       0.00000000       0.00000000       0.00000000       0.09709277
Li       0.00000000       0.00000000       5.35333333       0.00000000       0.00000000      -0.09709277
2
Properties=species:S:1:pos:R:3:forces:R:3 energy=-0.6428743167924091 pbc="F F F"
Li       0.00000000       0.00000000       0.00000000       0.00000000       0.00000000       0.09007480
Li       0.00000000       0.00000000       5.41212121       0.00000000       0.00000000      -0.09007480
2
Properties=species:S:1:pos:R:3:forces:R:3 energy=-0.6378073161624078 pbc="F F F"
Li       0.00000000       0.00000000       0.00000000       0.00000000       0.00000000       0.08215645
Li       0.00000000       0.00000000       5.47090909       0.00000000       0.00000000      -0.08215645
2
Properties=species:S:1:pos:R:3:forces:R:3 energy=-0.6332285742173263 pbc="F F F"
Li       0.00000000       0.00000000       0.00000000       0.00000000       0.00000000       0.07350814
Li       0.00000000       0.00000000       5.52969697       0.00000000       0.00000000      -0.07350814
2
Properties=species:S:1:pos:R:3:forces:R:3 energy=-0.6291735048267987 pbc="F F F"
Li       0.00000000       0.00000000       0.00000000       0.00000000       0.00000000       0.06440653
Li       0.00000000       0.00000000       5.58848485       0.00000000       0.00000000      -0.06440653
2
Properties=species:S:1:pos:R:3:forces:R:3 energy=-0.6256589378825779 pbc="F F F"
Li       0.00000000       0.00000000       0.00000000       0.00000000       0.00000000       0.05521739
Li       0.00000000       0.00000000       5.64727273       0.00000000       0.00000000      -0.05521739
2
Properties=species:S:1:pos:R:3:forces:R:3 energy=-0.6226760269297831 pbc="F F F"
Li       0.00000000       0.00000000       0.00000000       0.00000000       0.00000000       0.04632938
Li       0.00000000       0.00000000       5.70606061       0.00000000       0.00000000      -0.04632938
2
Properties=species:S:1:pos:R:3:forces:R:3 energy=-0.6201958484197279 pbc="F F F"
Li       0.00000000       0.00000000       0.00000000       0.00000000       0.00000000       0.03812844
Li       0.00000000       0.00000000       5.76484848       0.00000000       0.00000000      -0.03812844
2
Properties=species:S:1:pos:R:3:forces:R:3 energy=-0.618170720347684 pbc="F F F"
Li       0.00000000       0.00000000       0.00000000       0.00000000       0.00000000       0.03098424
Li       0.00000000       0.00000000       5.82363636       0.00000000       0.00000000      -0.03098424
2
Properties=species:S:1:pos:R:3:forces:R:3 energy=-0.6165276821719117 pbc="F F F"
Li       0.00000000       0.00000000       0.00000000       0.00000000       0.00000000       0.02521428
Li       0.00000000       0.00000000       5.88242424       0.00000000       0.00000000      -0.02521428
2
Properties=species:S:1:pos:R:3:forces:R:3 energy=-0.6151744326874222 pbc="F F F"
Li       0.00000000       0.00000000       0.00000000       0.00000000       0.00000000       0.02109475
Li       0.00000000       0.00000000       5.94121212       0.00000000       0.00000000      -0.02109475
2
Properties=species:S:1:pos:R:3:forces:R:3 energy=-0.6140097802617062 pbc="F F F"
Li       0.00000000       0.00000000       0.00000000       0.00000000       0.00000000       0.01887134
Li       0.00000000       0.00000000       6.00000000       0.00000000       0.00000000      -0.01887134
