2
Properties=species:S:1:pos:R:3:forces:R:3 energy=554.051130502914 pbc="F F F"
N        0.00000000       0.00000000       0.00000000       0.00000000       0.00000000   -6469.23779297
N        0.00000000       0.00000000       0.18000000       0.00000000       0.00000000    6469.23779297
2
Properties=species:S:1:pos:R:3:forces:R:3 energy=308.4286329459042 pbc="F F F"
N        0.00000000       0.00000000       0.00000000       0.00000000       0.00000000   -2572.30249023
N        0.00000000       0.00000000       0.23878788       0.00000000       0.00000000    2572.30249023
2
Properties=species:S:1:pos:R:3:forces:R:3 energy=206.46865675119906 pbc="F F F"
N        0.00000000       0.00000000       0.00000000       0.00000000       0.00000000   -1110.18078613
N        0.00000000       0.00000000       0.29757576       0.00000000       0.00000000    1110.18078613
2
Properties=species:S:1:pos:R:3:forces:R:3 energy=161.30550978646238 pbc="F F F"
N        0.00000000       0.00000000       0.00000000       0.00000000       0.00000000    -526.55200195
N        0.00000000       0.00000000       0.35636364       0.00000000       0.00000000     526.55200195
2
Properties=species:S:1:pos:R:3:forces:R:3 energy=135.10536026696062 pbc="F F F"
N        0.00000000       0.00000000       0.00000000       0.00000000       0.00000000    -422.06796265
N        0.00000000       0.00000000       0.41515152       0.00000000       0.00000000     422.06796265
2
Properties=species:S:1:pos:R:3:forces:R:3 energy=109.05081775713494 pbc="F F F"
N        0.00000000       0.00000000       0.00000000       0.00000000       0.00000000    -471.11575317
N        0.00000000       0.00000000       0.47393939       0.00000000       0.00000000     471.11575317
2
Properties=species:S:1:pos:R:3:forces:R:3 energy=80.27686914868193 pbc="F F F"
N        0.00000000       0.00000000       0.00000000       0.00000000       0.00000000    -484.75997925
N        0.00000000       0.00000000       0.53272727       0.00000000       0.00000000     484.75997925
2
Properties=species:S:1:pos:R:3:forces:R:3 energy=54.09245916038108 pbc="F F F"
N        0.00000000       0.00000000       0.00000000       0.00000000       0.00000000    -401.93624878
N        0.00000000       0.00000000       0.59151515       0.00000000       0.00000000     401.93624878
2
Properties=species:S:1:pos:R:3:forces:R:3 energy=33.689966812209896 pbc="F F F"
N        0.00000000       0.00000000       0.00000000       0.00000000       0.00000000    -284.30722046
N        0.00000000       0.00000000       0.65030303       0.00000000       0.00000000     284.30722046
2
Properties=species:S:1:pos:R:3:forces:R:3 energy=18.994774751566244 pbc="F F F"
N        0.00000000       0.00000000       0.00000000       0.00000000       0.00000000    -232.65922546
N        0.00000000       0.00000000       0.70909091       0.00000000       0.00000000     232.65922546
2
Properties=species:S:1:pos:R:3:forces:R:3 energy=6.201304310191179 pbc="F F F"
N        0.00000000       0.00000000       0.00000000       0.00000000       0.00000000    -193.62799072
N        0.00000000       0.00000000       0.76787879       0.00000000       0.00000000     193.62799072
2
Properties=species:S:1:pos:R:3:forces:R:3 energy=-3.1743020881617614 pbc="F F F"
N        0.00000000       0.00000000       0.00000000       0.00000000       0.00000000    -126.41490173
N        0.00000000       0.00000000       0.82666667       0.00000000       0.00000000     126.41490173
2
Properties=species:S:1:pos:R:3:forces:R:3 energy=-9.040757236930654 pbc="F F F"
N        0.00000000       0.00000000       0.00000000       0.00000000       0.00000000     -76.87331390
N        0.00000000       0.00000000       0.88545455       0.00000000       0.00000000      76.87331390
2
Properties=species:S:1:pos:R:3:forces:R:3 energy=-12.595554128492676 pbc="F F F"
N        0.00000000       0.00000000       0.00000000       0.00000000       0.00000000     -46.30904770
N        0.00000000       0.00000000       0.94424242       0.00000000       0.00000000      46.30904770
2
Properties=species:S:1:pos:R:3:forces:R:3 energy=-14.658910740592592 pbc="F F F"
N        0.00000000       0.00000000       0.00000000       0.00000000       0.00000000     -24.94570732
N        0.00000000       0.00000000       1.00303030       0.00000000       0.00000000      24.94570732
2
Properties=species:S:1:pos:R:3:forces:R:3 energy=-15.64262160978506 pbc="F F F"
N        0.00000000       0.00000000       0.00000000       0.00000000       0.00000000      -9.45874119
N        0.00000000       0.00000000       1.06181818       0.00000000       0.00000000       9.45874119
2
Properties=species:S:1:pos:R:3:forces:R:3 energy=-15.869799073391494 pbc="F F F"
N        0.00000000       0.00000000       0.00000000       0.00000000       0.00000000       1.01988900
N        0.00000000       0.00000000       1.12060606       0.00000000       0.00000000      -1.01988900
2
Properties=species:S:1:pos:R:3:forces:R:3 energy=-15.593931493871317 pbc="F F F"
N        0.00000000       0.00000000       0.00000000       0.00000000       0.00000000       7.83273458
N        0.00000000       0.00000000       1.17939394       0.00000000       0.00000000      -7.83273458
2
Properties=species:S:1:pos:R:3:forces:R:3 energy=-15.005084067442194 pbc="F F F"
N        0.00000000       0.00000000       0.00000000       0.00000000       0.00000000      11.78057766
N        0.00000000       0.00000000       1.23818182       0.00000000       0.00000000     -11.78057766
2
Properties=species:S:1:pos:R:3:forces:R:3 energy=-14.250005152364134 pbc="F F F"
N        0.00000000       0.00000000       0.00000000       0.00000000       0.00000000      13.62974930
N        0.00000000       0.00000000       1.29696970       0.00000000       0.00000000     -13.62974930
2
Properties=species:S:1:pos:R:3:forces:R:3 energy=-13.427133834578239 pbc="F F F"
N        0.00000000       0.00000000       0.00000000       0.00000000       0.00000000      14.21812439
N        0.00000000       0.00000000       1.35575758       0.00000000       0.00000000     -14.21812439
2
Properties=species:S:1:pos:R:3:forces:R:3 energy=-12.590216347037686 pbc="F F F"
N        0.00000000       0.00000000       0.00000000       0.00000000       0.00000000      14.18344402
N        0.00000000       0.00000000       1.41454545       0.00000000       0.00000000     -14.18344402
2
Properties=species:S:1:pos:R:3:forces:R:3 energy=-11.766540466773307 pbc="F F F"
N        0.00000000       0.00000000       0.00000000       0.00000000       0.00000000      13.77901459
N        0.00000000       0.00000000       1.47333333       0.00000000       0.00000000     -13.77901459
2
Properties=species:S:1:pos:R:3:forces:R:3 energy=-10.978511677838776 pbc="F F F"
N        0.00000000       0.00000000       0.00000000       0.00000000       0.00000000      12.94923973
N        0.00000000       0.00000000       1.53212121       0.00000000       0.00000000     -12.94923973
2
Properties=species:S:1:pos:R:3:forces:R:3 energy=-10.253355348378225 pbc="F F F"
N        0.00000000       0.00000000       0.00000000       0.00000000       0.00000000      11.65433788
N        0.00000000       0.00000000       1.59090909       0.00000000       0.00000000     -11.65433788
2
Properties=species:S:1:pos:R:3:forces:R:3 energy=-9.61299943247858 pbc="F F F"
N        0.00000000       0.00000000       0.00000000       0.00000000       0.00000000      10.12257290
N        0.00000000       0.00000000       1.64969697       0.00000000       0.00000000     -10.12257290
2
Properties=species:S:1:pos:R:3:forces:R:3 energy=-9.06043269775569 pbc="F F F"
N        0.00000000       0.00000000       0.00000000       0.00000000       0.00000000       8.72551727
N        0.00000000       0.00000000       1.70848485       0.00000000       0.00000000      -8.72551727
2
Properties=species:S:1:pos:R:3:forces:R:3 energy=-8.579767676076582 pbc="F F F"
N        0.00000000       0.00000000       0.00000000       0.00000000       0.00000000       7.69217014
N        0.00000000       0.00000000       1.76727273       0.00000000       0.00000000      -7.69217014
2
Properties=species:S:1:pos:R:3:forces:R:3 energy=-8.149459910704648 pbc="F F F"
N        0.00000000       0.00000000       0.00000000       0.00000000       0.00000000       6.98771667
N        0.00000000       0.00000000       1.82606061       0.00000000       0.00000000      -6.98771667
2
Properties=species:S:1:pos:R:3:forces:R:3 energy=-7.755667045617961 pbc="F F F"
N        0.00000000       0.00000000       0.00000000       0.00000000       0.00000000       6.41186190
N        0.00000000       0.00000000       1.88484848       0.00000000       0.00000000      -6.41186190
2
Properties=species:S:1:pos:R:3:forces:R:3 energy=-7.397131379818096 pbc="F F F"
N        0.00000000       0.00000000       0.00000000       0.00000000       0.00000000       5.76067877
N        0.00000000       0.00000000       1.94363636       0.00000000       0.00000000      -5.76067877
2
Properties=species:S:1:pos:R:3:forces:R:3 energy=-7.081831518867766 pbc="F F F"
N        0.00000000       0.00000000       0.00000000       0.00000000       0.00000000       4.93694067
N        0.00000000       0.00000000       2.00242424       0.00000000       0.00000000      -4.93694067
2
Properties=species:S:1:pos:R:3:forces:R:3 energy=-6.819306653851012 pbc="F F F"
N        0.00000000       0.00000000       0.00000000       0.00000000       0.00000000       3.98145723
N        0.00000000       0.00000000       2.06121212       0.00000000       0.00000000      -3.98145723
2
Properties=species:S:1:pos:R:3:forces:R:3 energy=-6.613923293251897 pbc="F F F"
N        0.00000000       0.00000000       0.00000000       0.00000000       0.00000000       3.01464605
N        0.00000000       0.00000000       2.12000000       0.00000000       0.00000000      -3.01464605
2
Properties=species:S:1:pos:R:3:forces:R:3 energy=-6.462826974084929 pbc="F F F"
N        0.00000000       0.00000000       0.00000000       0.00000000       0.00000000       2.14942932
N        0.00000000       0.00000000       2.17878788       0.00000000       0.00000000      -2.14942932
2
Properties=species:S:1:pos:R:3:forces:R:3 energy=-6.358007320786905 pbc="F F F"
N        0.00000000       0.00000000       0.00000000       0.00000000       0.00000000       1.44551170
N        0.00000000       0.00000000       2.23757576       0.00000000       0.00000000      -1.44551170
2
Properties=species:S:1:pos:R:3:forces:R:3 energy=-6.2895159282955815 pbc="F F F"
N        0.00000000       0.00000000       0.00000000       0.00000000       0.00000000       0.91182148
N        0.00000000       0.00000000       2.29636364       0.00000000       0.00000000      -0.91182148
2
Properties=species:S:1:pos:R:3:forces:R:3 energy=-6.247846157224606 pbc="F F F"
N        0.00000000       0.00000000       0.00000000       0.00000000       0.00000000       0.52846664
N        0.00000000       0.00000000       2.35515152       0.00000000       0.00000000      -0.52846664
2
Properties=species:S:1:pos:R:3:forces:R:3 energy=-6.225020543220115 pbc="F F F"
N        0.00000000       0.00000000       0.00000000       0.00000000       0.00000000       0.26558793
N        0.00000000       0.00000000       2.41393939       0.00000000       0.00000000      -0.26558793
2
Properties=species:S:1:pos:R:3:forces:R:3 energy=-6.214839148180842 pbc="F F F"
N        0.00000000       0.00000000       0.00000000       0.00000000       0.00000000       0.09370389
N        0.00000000       0.00000000       2.47272727       0.00000000       0.00000000      -0.09370389
2
Properties=species:S:1:pos:R:3:forces:R:3 energy=-6.212718807451171 pbc="F F F"
N        0.00000000       0.00000000       0.00000000       0.00000000       0.00000000      -0.01243614
N        0.00000000       0.00000000       2.53151515       0.00000000       0.00000000       0.01243614
2
Properties=species:S:1:pos:R:3:forces:R:3 energy=-6.215410106336934 pbc="F F F"
N        0.00000000       0.00000000       0.00000000       0.00000000       0.00000000      -0.07294052
N        0.00000000       0.00000000       2.59030303       0.00000000       0.00000000       0.07294052
2
Properties=species:S:1:pos:R:3:forces:R:3 energy=-6.220701837685901 pbc="F F F"
N        0.00000000       0.00000000       0.00000000       0.00000000       0.00000000      -0.10305695
N        0.00000000       0.00000000       2.64909091       0.00000000       0.00000000       0.10305695
2
Properties=species:S:1:pos:R:3:forces:R:3 energy=-6.227150273215474 pbc="F F F"
N        0.00000000       0.00000000       0.00000000       0.00000000       0.00000000      -0.11380839
N        0.00000000       0.00000000       2.70787879       0.00000000       0.00000000       0.11380839
2
Properties=species:S:1:pos:R:3:forces:R:3 energy=-6.233853189425076 pbc="F F F"
N        0.00000000       0.00000000       0.00000000       0.00000000       0.00000000      -0.11274263
N        0.00000000       0.00000000       2.76666667       0.00000000       0.00000000       0.11274263
2
Properties=species:S:1:pos:R:3:forces:R:3 energy=-6.240271088507867 pbc="F F F"
N        0.00000000       0.00000000       0.00000000       0.00000000       0.00000000      -0.10473336
N        0.00000000       0.00000000       2.82545455       0.00000000       0.00000000       0.10473336
2
Properties=species:S:1:pos:R:3:forces:R:3 energy=-6.2460903777645616 pbc="F F F"
N        0.00000000       0.00000000       0.00000000       0.00000000       0.00000000      -0.09275356
N        0.00000000       0.00000000       2.88424242       0.00000000       0.00000000       0.09275356
2
Properties=species:S:1:pos:R:3:forces:R:3 energy=-6.251133735305066 pbc="F F F"
N        0.00000000       0.00000000       0.00000000       0.00000000       0.00000000      -0.07856305
N        0.00000000       0.00000000       2.94303030       0.00000000       0.00000000       0.07856305
2
Properties=species:S:1:pos:R:3:forces:R:3 energy=-6.255305257144216 pbc="F F F"
N        0.00000000       0.00000000       0.00000000       0.00000000       0.00000000      -0.06324703
N        0.00000000       0.00000000       3.00181818       0.00000000       0.00000000       0.06324703
2
Properties=species:S:1:pos:R:3:forces:R:3 energy=-6.258562767384471 pbc="F F F"
N        0.00000000       0.00000000       0.00000000       0.00000000       0.00000000      -0.04757587
N        0.00000000       0.00000000       3.06060606       0.00000000       0.00000000       0.04757587
2
Properties=species:S:1:pos:R:3:forces:R:3 energy=-6.260904898471174 pbc="F F F"
N        0.00000000       0.00000000       0.00000000       0.00000000       0.00000000      -0.03218854
N        0.00000000       0.00000000       3.11939394       0.00000000       0.00000000       0.03218854
2
Properties=species:S:1:pos:R:3:forces:R:3 energy=-6.262364350531985 pbc="F F F"
N        0.00000000       0.00000000       0.00000000       0.00000000       0.00000000      -0.01764149
N        0.00000000       0.00000000       3.17818182       0.00000000       0.00000000       0.01764149
2
Properties=species:S:1:pos:R:3:forces:R:3 energy=-6.263004482240774 pbc="F F F"
N        0.00000000       0.00000000       0.00000000       0.00000000       0.00000000      -0.00438060
N        0.00000000       0.00000000       3.23696970       0.00000000       0.00000000       0.00438060
2
Properties=species:S:1:pos:R:3:forces:R:3 energy=-6.262910624794555 pbc="F F F"
N        0.00000000       0.00000000       0.00000000       0.00000000       0.00000000       0.00729674
N        0.00000000       0.00000000       3.29575758       0.00000000       0.00000000      -0.00729674
2
Properties=species:S:1:pos:R:3:forces:R:3 energy=-6.262180477854102 pbc="F F F"
N        0.00000000       0.00000000       0.00000000       0.00000000       0.00000000       0.01725013
N        0.00000000       0.00000000       3.35454545       0.00000000       0.00000000      -0.01725013
2
Properties=species:S:1:pos:R:3:forces:R:3 energy=-6.260916385906703 pbc="F F F"
N        0.00000000       0.00000000       0.00000000       0.00000000       0.00000000       0.02546019
N        0.00000000       0.00000000       3.41333333       0.00000000       0.00000000      -0.02546019
2
Properties=species:S:1:pos:R:3:forces:R:3 energy=-6.2592205013904305 pbc="F F F"
N        0.00000000       0.00000000       0.00000000       0.00000000       0.00000000       0.03196025
N        0.00000000       0.00000000       3.47212121       0.00000000       0.00000000      -0.03196025
2
Properties=species:S:1:pos:R:3:forces:R:3 energy=-6.257191865858438 pbc="F F F"
N        0.00000000       0.00000000       0.00000000       0.00000000       0.00000000       0.03676621
N        0.00000000       0.00000000       3.53090909       0.00000000       0.00000000      -0.03676621
2
Properties=species:S:1:pos:R:3:forces:R:3 energy=-6.25493161163014 pbc="F F F"
N        0.00000000       0.00000000       0.00000000       0.00000000       0.00000000       0.03983255
N        0.00000000       0.00000000       3.58969697       0.00000000       0.00000000      -0.03983255
2
Properties=species:S:1:pos:R:3:forces:R:3 energy=-6.252544836273697 pbc="F F F"
N        0.00000000       0.00000000       0.00000000       0.00000000       0.00000000       0.04105891
N        0.00000000       0.00000000       3.64848485       0.00000000       0.00000000      -0.04105891
2
Properties=species:S:1:pos:R:3:forces:R:3 energy=-6.250142042620949 pbc="F F F"
N        0.00000000       0.00000000       0.00000000       0.00000000       0.00000000       0.04033447
N        0.00000000       0.00000000       3.70727273       0.00000000       0.00000000      -0.04033447
2
Properties=species:S:1:pos:R:3:forces:R:3 energy=-6.247841027901079 pbc="F F F"
N        0.00000000       0.00000000       0.00000000       0.00000000       0.00000000       0.03762297
N        0.00000000       0.00000000       3.76606061       0.00000000       0.00000000      -0.03762297
2
Properties=species:S:1:pos:R:3:forces:R:3 energy=-6.24575548043452 pbc="F F F"
N        0.00000000       0.00000000       0.00000000       0.00000000       0.00000000       0.03305002
N        0.00000000       0.00000000       3.82484848       0.00000000       0.00000000      -0.03305002
2
Properties=species:S:1:pos:R:3:forces:R:3 energy=-6.243984974764146 pbc="F F F"
N        0.00000000       0.00000000       0.00000000       0.00000000       0.00000000       0.02696649
N        0.00000000       0.00000000       3.88363636       0.00000000       0.00000000      -0.02696649
2
Properties=species:S:1:pos:R:3:forces:R:3 energy=-6.242602613090961 pbc="F F F"
N        0.00000000       0.00000000       0.00000000       0.00000000       0.00000000       0.01996734
N        0.00000000       0.00000000       3.94242424       0.00000000       0.00000000      -0.01996734
2
Properties=species:S:1:pos:R:3:forces:R:3 energy=-6.241639800935095 pbc="F F F"
N        0.00000000       0.00000000       0.00000000       0.00000000       0.00000000       0.01283674
N        0.00000000       0.00000000       4.00121212       0.00000000       0.00000000      -0.01283674
2
Properties=species:S:1:pos:R:3:forces:R:3 energy=-6.241079130810404 pbc="F F F"
N        0.00000000       0.00000000       0.00000000       0.00000000       0.00000000       0.00642681
N        0.00000000       0.00000000       4.06000000       0.00000000       0.00000000      -0.00642681
2
Properties=species:S:1:pos:R:3:forces:R:3 energy=-6.240855363617225 pbc="F F F"
N        0.00000000       0.00000000       0.00000000       0.00000000       0.00000000       0.00149107
N        0.00000000       0.00000000       4.11878788       0.00000000       0.00000000      -0.00149107
2
Properties=species:S:1:pos:R:3:forces:R:3 energy=-6.240865483998356 pbc="F F F"
N        0.00000000       0.00000000       0.00000000       0.00000000       0.00000000      -0.00148543
N        0.00000000       0.00000000       4.17757576       0.00000000       0.00000000       0.00148543
2
Properties=species:S:1:pos:R:3:forces:R:3 energy=-6.240989221561892 pbc="F F F"
N        0.00000000       0.00000000       0.00000000       0.00000000       0.00000000      -0.00239889
N        0.00000000       0.00000000       4.23636364       0.00000000       0.00000000       0.00239889
2
Properties=species:S:1:pos:R:3:forces:R:3 energy=-6.241112927981152 pbc="F F F"
N        0.00000000       0.00000000       0.00000000       0.00000000       0.00000000      -0.00154984
N        0.00000000       0.00000000       4.29515152       0.00000000       0.00000000       0.00154984
2
Properties=species:S:1:pos:R:3:forces:R:3 energy=-6.241149142761303 pbc="F F F"
N        0.00000000       0.00000000       0.00000000       0.00000000       0.00000000       0.00043966
N        0.00000000       0.00000000       4.35393939       0.00000000       0.00000000      -0.00043966
2
Properties=species:S:1:pos:R:3:forces:R:3 energy=-6.2410542516573475 pbc="F F F"
N        0.00000000       0.00000000       0.00000000       0.00000000       0.00000000       0.00277888
N        0.00000000       0.00000000       4.41272727       0.00000000       0.00000000      -0.00277888
2
Properties=species:S:1:pos:R:3:forces:R:3 energy=-6.240830893430641 pbc="F F F"
N        0.00000000       0.00000000       0.00000000       0.00000000       0.00000000       0.00468755
N        0.00000000       0.00000000       4.47151515       0.00000000       0.00000000      -0.00468755
2
Properties=species:S:1:pos:R:3:forces:R:3 energy=-6.240523670690341 pbc="F F F"
N        0.00000000       0.00000000       0.00000000       0.00000000       0.00000000       0.00555627
N        0.00000000       0.00000000       4.53030303       0.00000000       0.00000000      -0.00555627
2
Properties=species:S:1:pos:R:3:forces:R:3 energy=-6.240204857845924 pbc="F F F"
N        0.00000000       0.00000000       0.00000000       0.00000000       0.00000000       0.00504480
N        0.00000000       0.00000000       4.58909091       0.00000000       0.00000000      -0.00504480
2
Properties=species:S:1:pos:R:3:forces:R:3 energy=-6.239958198939229 pbc="F F F"
N        0.00000000       0.00000000       0.00000000       0.00000000       0.00000000       0.00311650
N        0.00000000       0.00000000       4.64787879       0.00000000       0.00000000      -0.00311650
2
Properties=species:S:1:pos:R:3:forces:R:3 energy=-6.239861737942964 pbc="F F F"
N        0.00000000       0.00000000       0.00000000       0.00000000       0.00000000       0.00000027
N        0.00000000       0.00000000       4.70666667       0.00000000       0.00000000      -0.00000027
2
Properties=species:S:1:pos:R:3:forces:R:3 energy=-6.239973522357468 pbc="F F F"
N        0.00000000       0.00000000       0.00000000       0.00000000       0.00000000      -0.00388989
N        0.00000000       0.00000000       4.76545455       0.00000000       0.00000000       0.00388989
2
Properties=species:S:1:pos:R:3:forces:R:3 energy=-6.240324453029208 pbc="F F F"
N        0.00000000       0.00000000       0.00000000       0.00000000       0.00000000      -0.00805658
N        0.00000000       0.00000000       4.82424242       0.00000000       0.00000000       0.00805658
2
Properties=species:S:1:pos:R:3:forces:R:3 energy=-6.240916377000132 pbc="F F F"
N        0.00000000       0.00000000       0.00000000       0.00000000       0.00000000      -0.01200258
N        0.00000000       0.00000000       4.88303030       0.00000000       0.00000000       0.01200258
2
Properties=species:S:1:pos:R:3:forces:R:3 energy=-6.241723037519191 pbc="F F F"
N        0.00000000       0.00000000       0.00000000       0.00000000       0.00000000      -0.01529743
N        0.00000000       0.00000000       4.94181818       0.00000000       0.00000000       0.01529743
2
Properties=species:S:1:pos:R:3:forces:R:3 energy=-6.242695800839973 pbc="F F F"
N        0.00000000       0.00000000       0.00000000       0.00000000       0.00000000      -0.01760733
N        0.00000000       0.00000000       5.00060606       0.00000000       0.00000000       0.01760733
2
Properties=species:S:1:pos:R:3:forces:R:3 energy=-6.243769853519849 pbc="F F F"
N        0.00000000       0.00000000       0.00000000       0.00000000       0.00000000      -0.01872677
N        0.00000000       0.00000000       5.05939394       0.00000000       0.00000000       0.01872677
2
Properties=species:S:1:pos:R:3:forces:R:3 energy=-6.24487278152904 pbc="F F F"
N        0.00000000       0.00000000       0.00000000       0.00000000       0.00000000      -0.01859425
N        0.00000000       0.00000000       5.11818182       0.00000000       0.00000000       0.01859425
2
Properties=species:S:1:pos:R:3:forces:R:3 energy=-6.245933154507398 pbc="F F F"
N        0.00000000       0.00000000       0.00000000       0.00000000       0.00000000      -0.01730241
N        0.00000000       0.00000000       5.17696970       0.00000000       0.00000000       0.01730241
2
Properties=species:S:1:pos:R:3:forces:R:3 energy=-6.246889107645323 pbc="F F F"
N        0.00000000       0.00000000       0.00000000       0.00000000       0.00000000      -0.01508612
N        0.00000000       0.00000000       5.23575758       0.00000000       0.00000000       0.01508612
2
Properties=species:S:1:pos:R:3:forces:R:3 energy=-6.2476954895883985 pbc="F F F"
N        0.00000000       0.00000000       0.00000000       0.00000000       0.00000000      -0.01228287
N        0.00000000       0.00000000       5.29454545       0.00000000       0.00000000       0.01228287
2
Properties=species:S:1:pos:R:3:forces:R:3 energy=-6.248329110120985 pbc="F F F"
N        0.00000000       0.00000000       0.00000000       0.00000000       0.00000000      -0.00926810
N        0.00000000       0.00000000       5.35333333       0.00000000       0.00000000       0.00926810
2
Properties=species:S:1:pos:R:3:forces:R:3 energy=-6.248787782730124 pbc="F F F"
N        0.00000000       0.00000000       0.00000000       0.00000000       0.00000000      -0.00638715
N        0.00000000       0.00000000       5.41212121       0.00000000       0.00000000       0.00638715
2
Properties=species:S:1:pos:R:3:forces:R:3 energy=-6.249087937994379 pbc="F F F"
N        0.00000000       0.00000000       0.00000000       0.00000000       0.00000000      -0.00389993
N        0.00000000       0.00000000       5.47090909       0.00000000       0.00000000       0.00389993
2
Properties=species:S:1:pos:R:3:forces:R:3 energy=-6.249256994486286 pbc="F F F"
N        0.00000000       0.00000000       0.00000000       0.00000000       0.00000000      -0.00195424
N        0.00000000       0.00000000       5.52969697       0.00000000       0.00000000       0.00195424
2
Properties=species:S:1:pos:R:3:forces:R:3 energy=-6.249329065406535 pbc="F F F"
N        0.00000000       0.00000000       0.00000000       0.00000000       0.00000000      -0.00058730
N        0.00000000       0.00000000       5.58848485       0.00000000       0.00000000       0.00058730
2
Properties=species:S:1:pos:R:3:forces:R:3 energy=-6.249336373634228 pbc="F F F"
N        0.00000000       0.00000000       0.00000000       0.00000000       0.00000000       0.00024984
N        0.00000000       0.00000000       5.64727273       0.00000000       0.00000000      -0.00024984
2
Properties=species:S:1:pos:R:3:forces:R:3 energy=-6.249307819384005 pbc="F F F"
N        0.00000000       0.00000000       0.00000000       0.00000000       0.00000000       0.00066146
N        0.00000000       0.00000000       5.70606061       0.00000000       0.00000000      -0.00066146
2
Properties=species:S:1:pos:R:3:forces:R:3 energy=-6.249264689166596 pbc="F F F"
N        0.00000000       0.00000000       0.00000000       0.00000000       0.00000000       0.00077254
N        0.00000000       0.00000000       5.76484848       0.00000000       0.00000000      -0.00077254
2
Properties=species:S:1:pos:R:3:forces:R:3 energy=-6.249220653462448 pbc="F F F"
N        0.00000000       0.00000000       0.00000000       0.00000000       0.00000000       0.00070520
N        0.00000000       0.00000000       5.82363636       0.00000000       0.00000000      -0.00070520
2
Properties=species:S:1:pos:R:3:forces:R:3 energy=-6.249183195723535 pbc="F F F"
N        0.00000000       0.00000000       0.00000000       0.00000000       0.00000000       0.00056434
N        0.00000000       0.00000000       5.88242424       0.00000000       0.00000000      -0.00056434
2
Properties=species:S:1:pos:R:3:forces:R:3 energy=-6.249154089680741 pbc="F F F"
N        0.00000000       0.00000000       0.00000000       0.00000000       0.00000000       0.00042991
N        0.00000000       0.00000000       5.94121212       0.00000000       0.00000000      -0.00042991
2
Properties=species:S:1:pos:R:3:forces:R:3 energy=-6.249131304390874 pbc="F F F"
N        0.00000000       0.00000000       0.00000000       0.00000000       0.00000000       0.00035882
N        0.00000000       0.00000000       6.00000000       0.00000000       0.00000000      -0.00035882
