2
Properties=species:S:1:pos:R:3:forces:R:3 energy=802.8944533186533 pbc="F F F"
O        0.00000000       0.00000000       0.00000000       0.00000000       0.00000000   -8261.88867188
O        0.00000000       0.00000000       0.18000000       0.00000000       0.00000000    8261.88867188
2
Properties=species:S:1:pos:R:3:forces:R:3 energy=478.48884418937786 pbc="F F F"
O        0.00000000       0.00000000       0.00000000       0.00000000       0.00000000   -3709.57104492
O        0.00000000       0.00000000       0.23878788       0.00000000       0.00000000    3709.57104492
2
Properties=species:S:1:pos:R:3:forces:R:3 energy=299.2932875503368 pbc="F F F"
O        0.00000000       0.00000000       0.00000000       0.00000000       0.00000000   -2753.14965820
O        0.00000000       0.00000000       0.29757576       0.00000000       0.00000000    2753.14965820
2
Properties=species:S:1:pos:R:3:forces:R:3 energy=144.6052229798932 pbc="F F F"
O        0.00000000       0.00000000       0.00000000       0.00000000       0.00000000   -1316.45483398
O        0.00000000       0.00000000       0.35636364       0.00000000       0.00000000    1316.45483398
2
Properties=species:S:1:pos:R:3:forces:R:3 energy=95.82803945826574 pbc="F F F"
O        0.00000000       0.00000000       0.00000000       0.00000000       0.00000000    -234.98081970
O        0.00000000       0.00000000       0.41515152       0.00000000       0.00000000     234.98081970
2
Properties=species:S:1:pos:R:3:forces:R:3 energy=82.97272331833112 pbc="F F F"
O        0.00000000       0.00000000       0.00000000       0.00000000       0.00000000    -201.69357300
O        0.00000000       0.00000000       0.47393939       0.00000000       0.00000000     201.69357300
2
Properties=species:S:1:pos:R:3:forces:R:3 energy=70.03989254896594 pbc="F F F"
O        0.00000000       0.00000000       0.00000000       0.00000000       0.00000000    -188.81813049
O        0.00000000       0.00000000       0.53272727       0.00000000       0.00000000     188.81813049
2
Properties=species:S:1:pos:R:3:forces:R:3 energy=59.493544050840455 pbc="F F F"
O        0.00000000       0.00000000       0.00000000       0.00000000       0.00000000    -202.03770447
O        0.00000000       0.00000000       0.59151515       0.00000000       0.00000000     202.03770447
2
Properties=species:S:1:pos:R:3:forces:R:3 energy=45.721563883989255 pbc="F F F"
O        0.00000000       0.00000000       0.00000000       0.00000000       0.00000000    -284.73306274
O        0.00000000       0.00000000       0.65030303       0.00000000       0.00000000     284.73306274
2
Properties=species:S:1:pos:R:3:forces:R:3 energy=28.06750942995908 pbc="F F F"
O        0.00000000       0.00000000       0.00000000       0.00000000       0.00000000    -286.43551636
O        0.00000000       0.00000000       0.70909091       0.00000000       0.00000000     286.43551636
2
Properties=species:S:1:pos:R:3:forces:R:3 energy=13.435628954870204 pbc="F F F"
O        0.00000000       0.00000000       0.00000000       0.00000000       0.00000000    -196.46551514
O        0.00000000       0.00000000       0.76787879       0.00000000       0.00000000     196.46551514
2
Properties=species:S:1:pos:R:3:forces:R:3 energy=5.149258143527537 pbc="F F F"
O        0.00000000       0.00000000       0.00000000       0.00000000       0.00000000     -98.57063293
O        0.00000000       0.00000000       0.82666667       0.00000000       0.00000000      98.57063293
2
Properties=species:S:1:pos:R:3:forces:R:3 energy=0.5479925997075688 pbc="F F F"
O        0.00000000       0.00000000       0.00000000       0.00000000       0.00000000     -65.48741913
O        0.00000000       0.00000000       0.88545455       0.00000000       0.00000000      65.48741913
2
Properties=species:S:1:pos:R:3:forces:R:3 energy=-2.971594793651923 pbc="F F F"
O        0.00000000       0.00000000       0.00000000       0.00000000       0.00000000     -54.29644775
O        0.00000000       0.00000000       0.94424242       0.00000000       0.00000000      54.29644775
2
Properties=species:S:1:pos:R:3:forces:R:3 energy=-5.744772701952515 pbc="F F F"
O        0.00000000       0.00000000       0.00000000       0.00000000       0.00000000     -39.65590286
O        0.00000000       0.00000000       1.00303030       0.00000000       0.00000000      39.65590286
2
Properties=species:S:1:pos:R:3:forces:R:3 energy=-7.646660026373091 pbc="F F F"
O        0.00000000       0.00000000       0.00000000       0.00000000       0.00000000     -25.38021278
O        0.00000000       0.00000000       1.06181818       0.00000000       0.00000000      25.38021278
2
Properties=species:S:1:pos:R:3:forces:R:3 energy=-8.777663361373103 pbc="F F F"
O        0.00000000       0.00000000       0.00000000       0.00000000       0.00000000     -13.61656189
O        0.00000000       0.00000000       1.12060606       0.00000000       0.00000000      13.61656189
2
Properties=species:S:1:pos:R:3:forces:R:3 energy=-9.317361518174788 pbc="F F F"
O        0.00000000       0.00000000       0.00000000       0.00000000       0.00000000      -5.33945704
O        0.00000000       0.00000000       1.17939394       0.00000000       0.00000000       5.33945704
2
Properties=species:S:1:pos:R:3:forces:R:3 energy=-9.466436404135113 pbc="F F F"
O        0.00000000       0.00000000       0.00000000       0.00000000       0.00000000      -0.16438565
O        0.00000000       0.00000000       1.23818182       0.00000000       0.00000000       0.16438565
2
Properties=species:S:1:pos:R:3:forces:R:3 energy=-9.378979545253536 pbc="F F F"
O        0.00000000       0.00000000       0.00000000       0.00000000       0.00000000       2.84683895
O        0.00000000       0.00000000       1.29696970       0.00000000       0.00000000      -2.84683895
2
Properties=species:S:1:pos:R:3:forces:R:3 energy=-9.157490399379666 pbc="F F F"
O        0.00000000       0.00000000       0.00000000       0.00000000       0.00000000       4.55039692
O        0.00000000       0.00000000       1.35575758       0.00000000       0.00000000      -4.55039692
2
Properties=species:S:1:pos:R:3:forces:R:3 energy=-8.85257555187401 pbc="F F F"
O        0.00000000       0.00000000       0.00000000       0.00000000       0.00000000       5.79903030
O        0.00000000       0.00000000       1.41454545       0.00000000       0.00000000      -5.79903030
2
Properties=species:S:1:pos:R:3:forces:R:3 energy=-8.474384864868181 pbc="F F F"
O        0.00000000       0.00000000       0.00000000       0.00000000       0.00000000       7.10341501
O        0.00000000       0.00000000       1.47333333       0.00000000       0.00000000      -7.10341501
2
Properties=species:S:1:pos:R:3:forces:R:3 energy=-8.012960580195946 pbc="F F F"
O        0.00000000       0.00000000       0.00000000       0.00000000       0.00000000       8.61251640
O        0.00000000       0.00000000       1.53212121       0.00000000       0.00000000      -8.61251640
2
Properties=species:S:1:pos:R:3:forces:R:3 energy=-7.465060018047227 pbc="F F F"
O        0.00000000       0.00000000       0.00000000       0.00000000       0.00000000       9.94740295
O        0.00000000       0.00000000       1.59090909       0.00000000       0.00000000      -9.94740295
2
Properties=species:S:1:pos:R:3:forces:R:3 energy=-6.857052608136562 pbc="F F F"
O        0.00000000       0.00000000       0.00000000       0.00000000       0.00000000      10.60664654
O        0.00000000       0.00000000       1.64969697       0.00000000       0.00000000     -10.60664654
2
Properties=species:S:1:pos:R:3:forces:R:3 energy=-6.231266594511522 pbc="F F F"
O        0.00000000       0.00000000       0.00000000       0.00000000       0.00000000      10.59819698
O        0.00000000       0.00000000       1.70848485       0.00000000       0.00000000     -10.59819698
2
Properties=species:S:1:pos:R:3:forces:R:3 energy=-5.6188242286414445 pbc="F F F"
O        0.00000000       0.00000000       0.00000000       0.00000000       0.00000000      10.16774559
O        0.00000000       0.00000000       1.76727273       0.00000000       0.00000000     -10.16774559
2
Properties=species:S:1:pos:R:3:forces:R:3 energy=-5.047838582501989 pbc="F F F"
O        0.00000000       0.00000000       0.00000000       0.00000000       0.00000000       9.11753559
O        0.00000000       0.00000000       1.82606061       0.00000000       0.00000000      -9.11753559
2
Properties=species:S:1:pos:R:3:forces:R:3 energy=-4.564161393928886 pbc="F F F"
O        0.00000000       0.00000000       0.00000000       0.00000000       0.00000000       7.21844244
O        0.00000000       0.00000000       1.88484848       0.00000000       0.00000000      -7.21844244
2
Properties=species:S:1:pos:R:3:forces:R:3 energy=-4.20459906592765 pbc="F F F"
O        0.00000000       0.00000000       0.00000000       0.00000000       0.00000000       5.04919529
O        0.00000000       0.00000000       1.94363636       0.00000000       0.00000000      -5.04919529
2
Properties=species:S:1:pos:R:3:forces:R:3 energy=-3.959059081126202 pbc="F F F"
O        0.00000000       0.00000000       0.00000000       0.00000000       0.00000000       3.43747735
O        0.00000000       0.00000000       2.00242424       0.00000000       0.00000000      -3.43747735
2
Properties=species:S:1:pos:R:3:forces:R:3 energy=-3.7850482019663176 pbc="F F F"
O        0.00000000       0.00000000       0.00000000       0.00000000       0.00000000       2.59343100
O        0.00000000       0.00000000       2.06121212       0.00000000       0.00000000      -2.59343100
2
Properties=species:S:1:pos:R:3:forces:R:3 energy=-3.644780448839327 pbc="F F F"
O        0.00000000       0.00000000       0.00000000       0.00000000       0.00000000       2.22698855
O        0.00000000       0.00000000       2.12000000       0.00000000       0.00000000      -2.22698855
2
Properties=species:S:1:pos:R:3:forces:R:3 energy=-3.520387760626221 pbc="F F F"
O        0.00000000       0.00000000       0.00000000       0.00000000       0.00000000       2.01080847
O        0.00000000       0.00000000       2.17878788       0.00000000       0.00000000      -2.01080847
2
Properties=species:S:1:pos:R:3:forces:R:3 energy=-3.4087546821561037 pbc="F F F"
O        0.00000000       0.00000000       0.00000000       0.00000000       0.00000000       1.77898431
O        0.00000000       0.00000000       2.23757576       0.00000000       0.00000000      -1.77898431
2
Properties=species:S:1:pos:R:3:forces:R:3 energy=-3.3121570423914877 pbc="F F F"
O        0.00000000       0.00000000       0.00000000       0.00000000       0.00000000       1.50125456
O        0.00000000       0.00000000       2.29636364       0.00000000       0.00000000      -1.50125456
2
Properties=species:S:1:pos:R:3:forces:R:3 energy=-3.2326044708235893 pbc="F F F"
O        0.00000000       0.00000000       0.00000000       0.00000000       0.00000000       1.20518160
O        0.00000000       0.00000000       2.35515152       0.00000000       0.00000000      -1.20518160
2
Properties=species:S:1:pos:R:3:forces:R:3 energy=-3.1701527376809557 pbc="F F F"
O        0.00000000       0.00000000       0.00000000       0.00000000       0.00000000       0.92409307
O        0.00000000       0.00000000       2.41393939       0.00000000       0.00000000      -0.92409307
2
Properties=species:S:1:pos:R:3:forces:R:3 energy=-3.1232564478678624 pbc="F F F"
O        0.00000000       0.00000000       0.00000000       0.00000000       0.00000000       0.67807561
O        0.00000000       0.00000000       2.47272727       0.00000000       0.00000000      -0.67807561
2
Properties=species:S:1:pos:R:3:forces:R:3 energy=-3.08961094052468 pbc="F F F"
O        0.00000000       0.00000000       0.00000000       0.00000000       0.00000000       0.47345543
O        0.00000000       0.00000000       2.53151515       0.00000000       0.00000000      -0.47345543
2
Properties=species:S:1:pos:R:3:forces:R:3 energy=-3.0668156186161726 pbc="F F F"
O        0.00000000       0.00000000       0.00000000       0.00000000       0.00000000       0.30821708
O        0.00000000       0.00000000       2.59030303       0.00000000       0.00000000      -0.30821708
2
Properties=species:S:1:pos:R:3:forces:R:3 energy=-3.0527056137256556 pbc="F F F"
O        0.00000000       0.00000000       0.00000000       0.00000000       0.00000000       0.17699468
O        0.00000000       0.00000000       2.64909091       0.00000000       0.00000000      -0.17699468
2
Properties=species:S:1:pos:R:3:forces:R:3 energy=-3.0454510149092737 pbc="F F F"
O        0.00000000       0.00000000       0.00000000       0.00000000       0.00000000       0.07408396
O        0.00000000       0.00000000       2.70787879       0.00000000       0.00000000      -0.07408396
2
Properties=species:S:1:pos:R:3:forces:R:3 energy=-3.0435356636976634 pbc="F F F"
O        0.00000000       0.00000000       0.00000000       0.00000000       0.00000000      -0.00534570
O        0.00000000       0.00000000       2.76666667       0.00000000       0.00000000       0.00534570
2
Properties=species:S:1:pos:R:3:forces:R:3 energy=-3.0456947003075596 pbc="F F F"
O        0.00000000       0.00000000       0.00000000       0.00000000       0.00000000      -0.06508887
O        0.00000000       0.00000000       2.82545455       0.00000000       0.00000000       0.06508887
2
Properties=species:S:1:pos:R:3:forces:R:3 energy=-3.0508611717393004 pbc="F F F"
O        0.00000000       0.00000000       0.00000000       0.00000000       0.00000000      -0.10813735
O        0.00000000       0.00000000       2.88424242       0.00000000       0.00000000       0.10813735
2
Properties=species:S:1:pos:R:3:forces:R:3 energy=-3.058130733551809 pbc="F F F"
O        0.00000000       0.00000000       0.00000000       0.00000000       0.00000000      -0.13698527
O        0.00000000       0.00000000       2.94303030       0.00000000       0.00000000       0.13698527
2
Properties=species:S:1:pos:R:3:forces:R:3 energy=-3.066733029337678 pbc="F F F"
O        0.00000000       0.00000000       0.00000000       0.00000000       0.00000000      -0.15384597
O        0.00000000       0.00000000       3.00181818       0.00000000       0.00000000       0.15384597
2
Properties=species:S:1:pos:R:3:forces:R:3 energy=-3.076024497776066 pbc="F F F"
O        0.00000000       0.00000000       0.00000000       0.00000000       0.00000000      -0.16076118
O        0.00000000       0.00000000       3.06060606       0.00000000       0.00000000       0.16076118
2
Properties=species:S:1:pos:R:3:forces:R:3 energy=-3.0854771317174565 pbc="F F F"
O        0.00000000       0.00000000       0.00000000       0.00000000       0.00000000      -0.15963650
O        0.00000000       0.00000000       3.11939394       0.00000000       0.00000000       0.15963650
2
Properties=species:S:1:pos:R:3:forces:R:3 energy=-3.094670790580396 pbc="F F F"
O        0.00000000       0.00000000       0.00000000       0.00000000       0.00000000      -0.15223777
O        0.00000000       0.00000000       3.17818182       0.00000000       0.00000000       0.15223777
2
Properties=species:S:1:pos:R:3:forces:R:3 energy=-3.1032852873969183 pbc="F F F"
O        0.00000000       0.00000000       0.00000000       0.00000000       0.00000000      -0.14016970
O        0.00000000       0.00000000       3.23696970       0.00000000       0.00000000       0.14016970
2
Properties=species:S:1:pos:R:3:forces:R:3 energy=-3.111088151457389 pbc="F F F"
O        0.00000000       0.00000000       0.00000000       0.00000000       0.00000000      -0.12486038
O        0.00000000       0.00000000       3.29575758       0.00000000       0.00000000       0.12486038
2
Properties=species:S:1:pos:R:3:forces:R:3 energy=-3.117926479313216 pbc="F F F"
O        0.00000000       0.00000000       0.00000000       0.00000000       0.00000000      -0.10754193
O        0.00000000       0.00000000       3.35454545       0.00000000       0.00000000       0.10754193
2
Properties=species:S:1:pos:R:3:forces:R:3 energy=-3.1237135259196473 pbc="F F F"
O        0.00000000       0.00000000       0.00000000       0.00000000       0.00000000      -0.08924496
O        0.00000000       0.00000000       3.41333333       0.00000000       0.00000000       0.08924496
2
Properties=species:S:1:pos:R:3:forces:R:3 energy=-3.128416982527613 pbc="F F F"
O        0.00000000       0.00000000       0.00000000       0.00000000       0.00000000      -0.07081243
O        0.00000000       0.00000000       3.47212121       0.00000000       0.00000000       0.07081243
2
Properties=species:S:1:pos:R:3:forces:R:3 energy=-3.132049878367881 pbc="F F F"
O        0.00000000       0.00000000       0.00000000       0.00000000       0.00000000      -0.05291433
O        0.00000000       0.00000000       3.53090909       0.00000000       0.00000000       0.05291433
2
Properties=species:S:1:pos:R:3:forces:R:3 energy=-3.1346593642864344 pbc="F F F"
O        0.00000000       0.00000000       0.00000000       0.00000000       0.00000000      -0.03607752
O        0.00000000       0.00000000       3.58969697       0.00000000       0.00000000       0.03607752
2
Properties=species:S:1:pos:R:3:forces:R:3 energy=-3.1363204980223087 pbc="F F F"
O        0.00000000       0.00000000       0.00000000       0.00000000       0.00000000      -0.02071032
O        0.00000000       0.00000000       3.64848485       0.00000000       0.00000000       0.02071032
2
Properties=species:S:1:pos:R:3:forces:R:3 energy=-3.1371293433340504 pbc="F F F"
O        0.00000000       0.00000000       0.00000000       0.00000000       0.00000000      -0.00712277
O        0.00000000       0.00000000       3.70727273       0.00000000       0.00000000       0.00712277
2
Properties=species:S:1:pos:R:3:forces:R:3 energy=-3.1371974810266985 pbc="F F F"
O        0.00000000       0.00000000       0.00000000       0.00000000       0.00000000       0.00445839
O        0.00000000       0.00000000       3.76606061       0.00000000       0.00000000      -0.00445839
2
Properties=species:S:1:pos:R:3:forces:R:3 energy=-3.1366475118649366 pbc="F F F"
O        0.00000000       0.00000000       0.00000000       0.00000000       0.00000000       0.01387910
O        0.00000000       0.00000000       3.82484848       0.00000000       0.00000000      -0.01387910
2
Properties=species:S:1:pos:R:3:forces:R:3 energy=-3.1356097305923174 pbc="F F F"
O        0.00000000       0.00000000       0.00000000       0.00000000       0.00000000       0.02105199
O        0.00000000       0.00000000       3.88363636       0.00000000       0.00000000      -0.02105199
2
Properties=species:S:1:pos:R:3:forces:R:3 energy=-3.134216670220378 pbc="F F F"
O        0.00000000       0.00000000       0.00000000       0.00000000       0.00000000       0.02596420
O        0.00000000       0.00000000       3.94242424       0.00000000       0.00000000      -0.02596420
2
Properties=species:S:1:pos:R:3:forces:R:3 energy=-3.132599784957364 pbc="F F F"
O        0.00000000       0.00000000       0.00000000       0.00000000       0.00000000       0.02869221
O        0.00000000       0.00000000       4.00121212       0.00000000       0.00000000      -0.02869221
2
Properties=species:S:1:pos:R:3:forces:R:3 energy=-3.1308823265572334 pbc="F F F"
O        0.00000000       0.00000000       0.00000000       0.00000000       0.00000000       0.02942529
O        0.00000000       0.00000000       4.06000000       0.00000000       0.00000000      -0.02942529
2
Properties=species:S:1:pos:R:3:forces:R:3 energy=-3.1291729214712096 pbc="F F F"
O        0.00000000       0.00000000       0.00000000       0.00000000       0.00000000       0.02848472
O        0.00000000       0.00000000       4.11878788       0.00000000       0.00000000      -0.02848472
2
Properties=species:S:1:pos:R:3:forces:R:3 energy=-3.1275572531240026 pbc="F F F"
O        0.00000000       0.00000000       0.00000000       0.00000000       0.00000000       0.02631973
O        0.00000000       0.00000000       4.17757576       0.00000000       0.00000000      -0.02631973
2
Properties=species:S:1:pos:R:3:forces:R:3 energy=-3.1260916361945204 pbc="F F F"
O        0.00000000       0.00000000       0.00000000       0.00000000       0.00000000       0.02347271
O        0.00000000       0.00000000       4.23636364       0.00000000       0.00000000      -0.02347271
2
Properties=species:S:1:pos:R:3:forces:R:3 energy=-3.124799935290325 pbc="F F F"
O        0.00000000       0.00000000       0.00000000       0.00000000       0.00000000       0.02050331
O        0.00000000       0.00000000       4.29515152       0.00000000       0.00000000      -0.02050331
2
Properties=species:S:1:pos:R:3:forces:R:3 energy=-3.1236735784108776 pbc="F F F"
O        0.00000000       0.00000000       0.00000000       0.00000000       0.00000000       0.01790287
O        0.00000000       0.00000000       4.35393939       0.00000000       0.00000000      -0.01790287
2
Properties=species:S:1:pos:R:3:forces:R:3 energy=-3.122681335178107 pbc="F F F"
O        0.00000000       0.00000000       0.00000000       0.00000000       0.00000000       0.01599841
O        0.00000000       0.00000000       4.41272727       0.00000000       0.00000000      -0.01599841
2
Properties=species:S:1:pos:R:3:forces:R:3 energy=-3.1217767238494627 pbc="F F F"
O        0.00000000       0.00000000       0.00000000       0.00000000       0.00000000       0.01490523
O        0.00000000       0.00000000       4.47151515       0.00000000       0.00000000      -0.01490523
2
Properties=species:S:1:pos:R:3:forces:R:3 energy=-3.120914702202364 pbc="F F F"
O        0.00000000       0.00000000       0.00000000       0.00000000       0.00000000       0.01452627
O        0.00000000       0.00000000       4.53030303       0.00000000       0.00000000      -0.01452627
2
Properties=species:S:1:pos:R:3:forces:R:3 energy=-3.1200595401980364 pbc="F F F"
O        0.00000000       0.00000000       0.00000000       0.00000000       0.00000000       0.01461388
O        0.00000000       0.00000000       4.58909091       0.00000000       0.00000000      -0.01461388
2
Properties=species:S:1:pos:R:3:forces:R:3 energy=-3.119193170274464 pbc="F F F"
O        0.00000000       0.00000000       0.00000000       0.00000000       0.00000000       0.01487650
O        0.00000000       0.00000000       4.64787879       0.00000000       0.00000000      -0.01487650
2
Properties=species:S:1:pos:R:3:forces:R:3 energy=-3.118311610077759 pbc="F F F"
O        0.00000000       0.00000000       0.00000000       0.00000000       0.00000000       0.01508406
O        0.00000000       0.00000000       4.70666667       0.00000000       0.00000000      -0.01508406
2
Properties=species:S:1:pos:R:3:forces:R:3 energy=-3.117422343124607 pbc="F F F"
O        0.00000000       0.00000000       0.00000000       0.00000000       0.00000000       0.01514272
O        0.00000000       0.00000000       4.76545455       0.00000000       0.00000000      -0.01514272
2
Properties=species:S:1:pos:R:3:forces:R:3 energy=-3.1165331138220114 pbc="F F F"
O        0.00000000       0.00000000       0.00000000       0.00000000       0.00000000       0.01510874
O        0.00000000       0.00000000       4.82424242       0.00000000       0.00000000      -0.01510874
2
Properties=species:S:1:pos:R:3:forces:R:3 energy=-3.1156445372832966 pbc="F F F"
O        0.00000000       0.00000000       0.00000000       0.00000000       0.00000000       0.01515142
O        0.00000000       0.00000000       4.88303030       0.00000000       0.00000000      -0.01515142
2
Properties=species:S:1:pos:R:3:forces:R:3 energy=-3.1147458046258625 pbc="F F F"
O        0.00000000       0.00000000       0.00000000       0.00000000       0.00000000       0.01548935
O        0.00000000       0.00000000       4.94181818       0.00000000       0.00000000      -0.01548935
2
Properties=species:S:1:pos:R:3:forces:R:3 energy=-3.1138139698438256 pbc="F F F"
O        0.00000000       0.00000000       0.00000000       0.00000000       0.00000000       0.01630793
O        0.00000000       0.00000000       5.00060606       0.00000000       0.00000000      -0.01630793
2
Properties=species:S:1:pos:R:3:forces:R:3 energy=-3.1128172872721516 pbc="F F F"
O        0.00000000       0.00000000       0.00000000       0.00000000       0.00000000       0.01769697
O        0.00000000       0.00000000       5.05939394       0.00000000       0.00000000      -0.01769697
2
Properties=species:S:1:pos:R:3:forces:R:3 energy=-3.111723076033952 pbc="F F F"
O        0.00000000       0.00000000       0.00000000       0.00000000       0.00000000       0.01960029
O        0.00000000       0.00000000       5.11818182       0.00000000       0.00000000      -0.01960029
2
Properties=species:S:1:pos:R:3:forces:R:3 energy=-3.110506542072382 pbc="F F F"
O        0.00000000       0.00000000       0.00000000       0.00000000       0.00000000       0.02181229
O        0.00000000       0.00000000       5.17696970       0.00000000       0.00000000      -0.02181229
2
Properties=species:S:1:pos:R:3:forces:R:3 energy=-3.109158884233839 pbc="F F F"
O        0.00000000       0.00000000       0.00000000       0.00000000       0.00000000       0.02400307
O        0.00000000       0.00000000       5.23575758       0.00000000       0.00000000      -0.02400307
2
Properties=species:S:1:pos:R:3:forces:R:3 energy=-3.1076922973458285 pbc="F F F"
O        0.00000000       0.00000000       0.00000000       0.00000000       0.00000000       0.02578647
O        0.00000000       0.00000000       5.29454545       0.00000000       0.00000000      -0.02578647
2
Properties=species:S:1:pos:R:3:forces:R:3 energy=-3.1061421195185948 pbc="F F F"
O        0.00000000       0.00000000       0.00000000       0.00000000       0.00000000       0.02679913
O        0.00000000       0.00000000       5.35333333       0.00000000       0.00000000      -0.02679913
2
Properties=species:S:1:pos:R:3:forces:R:3 energy=-3.104561823127581 pbc="F F F"
O        0.00000000       0.00000000       0.00000000       0.00000000       0.00000000       0.02677856
O        0.00000000       0.00000000       5.41212121       0.00000000       0.00000000      -0.02677856
2
Properties=species:S:1:pos:R:3:forces:R:3 energy=-3.1030160989422346 pbc="F F F"
O        0.00000000       0.00000000       0.00000000       0.00000000       0.00000000       0.02561333
O        0.00000000       0.00000000       5.47090909       0.00000000       0.00000000      -0.02561333
2
Properties=species:S:1:pos:R:3:forces:R:3 energy=-3.1015715582716448 pbc="F F F"
O        0.00000000       0.00000000       0.00000000       0.00000000       0.00000000       0.02335591
O        0.00000000       0.00000000       5.52969697       0.00000000       0.00000000      -0.02335591
2
Properties=species:S:1:pos:R:3:forces:R:3 energy=-3.1002876714251286 pbc="F F F"
O        0.00000000       0.00000000       0.00000000       0.00000000       0.00000000       0.02020413
O        0.00000000       0.00000000       5.58848485       0.00000000       0.00000000      -0.02020413
2
Properties=species:S:1:pos:R:3:forces:R:3 energy=-3.099208422022522 pbc="F F F"
O        0.00000000       0.00000000       0.00000000       0.00000000       0.00000000       0.01645925
O        0.00000000       0.00000000       5.64727273       0.00000000       0.00000000      -0.01645925
2
Properties=species:S:1:pos:R:3:forces:R:3 energy=-3.0983572992388204 pbc="F F F"
O        0.00000000       0.00000000       0.00000000       0.00000000       0.00000000       0.01247700
O        0.00000000       0.00000000       5.70606061       0.00000000       0.00000000      -0.01247700
2
Properties=species:S:1:pos:R:3:forces:R:3 energy=-3.0977377748145805 pbc="F F F"
O        0.00000000       0.00000000       0.00000000       0.00000000       0.00000000       0.00861692
O        0.00000000       0.00000000       5.76484848       0.00000000       0.00000000      -0.00861692
2
Properties=species:S:1:pos:R:3:forces:R:3 energy=-3.0973342551215732 pbc="F F F"
O        0.00000000       0.00000000       0.00000000       0.00000000       0.00000000       0.00521471
O        0.00000000       0.00000000       5.82363636       0.00000000       0.00000000      -0.00521471
2
Properties=species:S:1:pos:R:3:forces:R:3 energy=-3.0971111266470173 pbc="F F F"
O        0.00000000       0.00000000       0.00000000       0.00000000       0.00000000       0.00254602
O        0.00000000       0.00000000       5.88242424       0.00000000       0.00000000      -0.00254602
2
Properties=species:S:1:pos:R:3:forces:R:3 energy=-3.0970168095548987 pbc="F F F"
O        0.00000000       0.00000000       0.00000000       0.00000000       0.00000000       0.00082727
O        0.00000000       0.00000000       5.94121212       0.00000000       0.00000000      -0.00082727
2
Properties=species:S:1:pos:R:3:forces:R:3 energy=-3.0969918622100048 pbc="F F F"
O        0.00000000       0.00000000       0.00000000       0.00000000       0.00000000       0.00021801
O        0.00000000       0.00000000       6.00000000       0.00000000       0.00000000      -0.00021801
