2
Properties=species:S:1:pos:R:3:forces:R:3 energy=11951.07942985039 pbc="F F F"
Pm       0.00000000       0.00000000       0.00000000       0.00000000       0.00000000 -204989.32812500
Pm       0.00000000       0.00000000       0.18000000       0.00000000       0.00000000  204989.32812500
2
Properties=species:S:1:pos:R:3:forces:R:3 energy=4730.70784781914 pbc="F F F"
Pm       0.00000000       0.00000000       0.00000000       0.00000000       0.00000000  -69104.60156250
Pm       0.00000000       0.00000000       0.23878788       0.00000000       0.00000000   69104.60156250
2
Properties=species:S:1:pos:R:3:forces:R:3 energy=2106.1458361003897 pbc="F F F"
Pm       0.00000000       0.00000000       0.00000000       0.00000000       0.00000000  -27434.35546875
Pm       0.00000000       0.00000000       0.29757576       0.00000000       0.00000000   27434.35546875
2
Properties=species:S:1:pos:R:3:forces:R:3 energy=1014.2243273113274 pbc="F F F"
Pm       0.00000000       0.00000000       0.00000000       0.00000000       0.00000000  -12052.57910156
Pm       0.00000000       0.00000000       0.35636364       0.00000000       0.00000000   12052.57910156
2
Properties=species:S:1:pos:R:3:forces:R:3 energy=518.5832750779049 pbc="F F F"
Pm       0.00000000       0.00000000       0.00000000       0.00000000       0.00000000   -5686.12988281
Pm       0.00000000       0.00000000       0.41515152       0.00000000       0.00000000    5686.12988281
2
Properties=species:S:1:pos:R:3:forces:R:3 energy=278.6420214284669 pbc="F F F"
Pm       0.00000000       0.00000000       0.00000000       0.00000000       0.00000000   -2838.99145508
Pm       0.00000000       0.00000000       0.47393939       0.00000000       0.00000000    2838.99145508
2
Properties=species:S:1:pos:R:3:forces:R:3 energy=156.15787531030279 pbc="F F F"
Pm       0.00000000       0.00000000       0.00000000       0.00000000       0.00000000   -1488.20556641
Pm       0.00000000       0.00000000       0.53272727       0.00000000       0.00000000    1488.20556641
2
Properties=species:S:1:pos:R:3:forces:R:3 energy=90.67103605388307 pbc="F F F"
Pm       0.00000000       0.00000000       0.00000000       0.00000000       0.00000000    -814.47564697
Pm       0.00000000       0.00000000       0.59151515       0.00000000       0.00000000     814.47564697
2
Properties=species:S:1:pos:R:3:forces:R:3 energy=54.19598803938267 pbc="F F F"
Pm       0.00000000       0.00000000       0.00000000       0.00000000       0.00000000    -462.98397827
Pm       0.00000000       0.00000000       0.65030303       0.00000000       0.00000000     462.98397827
2
Properties=species:S:1:pos:R:3:forces:R:3 energy=33.143223222832276 pbc="F F F"
Pm       0.00000000       0.00000000       0.00000000       0.00000000       0.00000000    -271.89135742
Pm       0.00000000       0.00000000       0.70909091       0.00000000       0.00000000     271.89135742
2
Properties=species:S:1:pos:R:3:forces:R:3 energy=20.620407632528174 pbc="F F F"
Pm       0.00000000       0.00000000       0.00000000       0.00000000       0.00000000    -164.04888916
Pm       0.00000000       0.00000000       0.76787879       0.00000000       0.00000000     164.04888916
2
Properties=species:S:1:pos:R:3:forces:R:3 energy=12.985142459584416 pbc="F F F"
Pm       0.00000000       0.00000000       0.00000000       0.00000000       0.00000000    -101.17952728
Pm       0.00000000       0.00000000       0.82666667       0.00000000       0.00000000     101.17952728
2
Properties=species:S:1:pos:R:3:forces:R:3 energy=8.234803192282259 pbc="F F F"
Pm       0.00000000       0.00000000       0.00000000       0.00000000       0.00000000     -63.57086563
Pm       0.00000000       0.00000000       0.88545455       0.00000000       0.00000000      63.57086563
2
Properties=species:S:1:pos:R:3:forces:R:3 energy=5.224762774366767 pbc="F F F"
Pm       0.00000000       0.00000000       0.00000000       0.00000000       0.00000000     -40.70466232
Pm       0.00000000       0.00000000       0.94424242       0.00000000       0.00000000      40.70466232
2
Properties=species:S:1:pos:R:3:forces:R:3 energy=3.2756183902926783 pbc="F F F"
Pm       0.00000000       0.00000000       0.00000000       0.00000000       0.00000000     -26.75976372
Pm       0.00000000       0.00000000       1.00303030       0.00000000       0.00000000      26.75976372
2
Properties=species:S:1:pos:R:3:forces:R:3 energy=1.9705607829666048 pbc="F F F"
Pm       0.00000000       0.00000000       0.00000000       0.00000000       0.00000000     -18.36177444
Pm       0.00000000       0.00000000       1.06181818       0.00000000       0.00000000      18.36177444
2
Properties=species:S:1:pos:R:3:forces:R:3 energy=1.0495381312269132 pbc="F F F"
Pm       0.00000000       0.00000000       0.00000000       0.00000000       0.00000000     -13.41314220
Pm       0.00000000       0.00000000       1.12060606       0.00000000       0.00000000      13.41314220
2
Properties=species:S:1:pos:R:3:forces:R:3 energy=0.3541007167386768 pbc="F F F"
Pm       0.00000000       0.00000000       0.00000000       0.00000000       0.00000000     -10.48749065
Pm       0.00000000       0.00000000       1.17939394       0.00000000       0.00000000      10.48749065
2
Properties=species:S:1:pos:R:3:forces:R:3 energy=-0.20280818742332093 pbc="F F F"
Pm       0.00000000       0.00000000       0.00000000       0.00000000       0.00000000      -8.55600548
Pm       0.00000000       0.00000000       1.23818182       0.00000000       0.00000000       8.55600548
2
Properties=species:S:1:pos:R:3:forces:R:3 energy=-0.6572664598673763 pbc="F F F"
Pm       0.00000000       0.00000000       0.00000000       0.00000000       0.00000000      -6.91003799
Pm       0.00000000       0.00000000       1.29696970       0.00000000       0.00000000       6.91003799
2
Properties=species:S:1:pos:R:3:forces:R:3 energy=-1.012846522817083 pbc="F F F"
Pm       0.00000000       0.00000000       0.00000000       0.00000000       0.00000000      -5.14955807
Pm       0.00000000       0.00000000       1.35575758       0.00000000       0.00000000       5.14955807
2
Properties=species:S:1:pos:R:3:forces:R:3 energy=-1.2575872320211205 pbc="F F F"
Pm       0.00000000       0.00000000       0.00000000       0.00000000       0.00000000      -3.13200974
Pm       0.00000000       0.00000000       1.41454545       0.00000000       0.00000000       3.13200974
2
Properties=species:S:1:pos:R:3:forces:R:3 energy=-1.3765044744590946 pbc="F F F"
Pm       0.00000000       0.00000000       0.00000000       0.00000000       0.00000000      -0.88458306
Pm       0.00000000       0.00000000       1.47333333       0.00000000       0.00000000       0.88458306
2
Properties=species:S:1:pos:R:3:forces:R:3 energy=-1.3603401981110275 pbc="F F F"
Pm       0.00000000       0.00000000       0.00000000       0.00000000       0.00000000       1.41991282
Pm       0.00000000       0.00000000       1.53212121       0.00000000       0.00000000      -1.41991282
2
Properties=species:S:1:pos:R:3:forces:R:3 energy=-1.2153942234556359 pbc="F F F"
Pm       0.00000000       0.00000000       0.00000000       0.00000000       0.00000000       3.42237997
Pm       0.00000000       0.00000000       1.59090909       0.00000000       0.00000000      -3.42237997
2
Properties=species:S:1:pos:R:3:forces:R:3 energy=-0.9728058407408884 pbc="F F F"
Pm       0.00000000       0.00000000       0.00000000       0.00000000       0.00000000       4.67424440
Pm       0.00000000       0.00000000       1.64969697       0.00000000       0.00000000      -4.67424440
2
Properties=species:S:1:pos:R:3:forces:R:3 energy=-0.6856179184332579 pbc="F F F"
Pm       0.00000000       0.00000000       0.00000000       0.00000000       0.00000000       4.92969418
Pm       0.00000000       0.00000000       1.70848485       0.00000000       0.00000000      -4.92969418
2
Properties=species:S:1:pos:R:3:forces:R:3 energy=-0.4103806038058162 pbc="F F F"
Pm       0.00000000       0.00000000       0.00000000       0.00000000       0.00000000       4.31606627
Pm       0.00000000       0.00000000       1.76727273       0.00000000       0.00000000      -4.31606627
2
Properties=species:S:1:pos:R:3:forces:R:3 energy=-0.18817284945773305 pbc="F F F"
Pm       0.00000000       0.00000000       0.00000000       0.00000000       0.00000000       3.18999362
Pm       0.00000000       0.00000000       1.82606061       0.00000000       0.00000000      -3.18999362
2
Properties=species:S:1:pos:R:3:forces:R:3 energy=-0.03852483462924358 pbc="F F F"
Pm       0.00000000       0.00000000       0.00000000       0.00000000       0.00000000       1.89533281
Pm       0.00000000       0.00000000       1.88484848       0.00000000       0.00000000      -1.89533281
2
Properties=species:S:1:pos:R:3:forces:R:3 energy=0.03575661265178007 pbc="F F F"
Pm       0.00000000       0.00000000       0.00000000       0.00000000       0.00000000       0.65259957
Pm       0.00000000       0.00000000       1.94363636       0.00000000       0.00000000      -0.65259957
2
Properties=species:S:1:pos:R:3:forces:R:3 energy=0.04162115271578118 pbc="F F F"
Pm       0.00000000       0.00000000       0.00000000       0.00000000       0.00000000      -0.41720030
Pm       0.00000000       0.00000000       2.00242424       0.00000000       0.00000000       0.41720030
2
Properties=species:S:1:pos:R:3:forces:R:3 energy=-0.008463475302780715 pbc="F F F"
Pm       0.00000000       0.00000000       0.00000000       0.00000000       0.00000000      -1.24179435
Pm       0.00000000       0.00000000       2.06121212       0.00000000       0.00000000       1.24179435
2
Properties=species:S:1:pos:R:3:forces:R:3 energy=-0.09903731199348037 pbc="F F F"
Pm       0.00000000       0.00000000       0.00000000       0.00000000       0.00000000      -1.79618478
Pm       0.00000000       0.00000000       2.12000000       0.00000000       0.00000000       1.79618478
2
Properties=species:S:1:pos:R:3:forces:R:3 energy=-0.2151599373723321 pbc="F F F"
Pm       0.00000000       0.00000000       0.00000000       0.00000000       0.00000000      -2.12235856
Pm       0.00000000       0.00000000       2.17878788       0.00000000       0.00000000       2.12235856
2
Properties=species:S:1:pos:R:3:forces:R:3 energy=-0.3455250914196427 pbc="F F F"
Pm       0.00000000       0.00000000       0.00000000       0.00000000       0.00000000      -2.29209256
Pm       0.00000000       0.00000000       2.23757576       0.00000000       0.00000000       2.29209256
2
Properties=species:S:1:pos:R:3:forces:R:3 energy=-0.48267962657490177 pbc="F F F"
Pm       0.00000000       0.00000000       0.00000000       0.00000000       0.00000000      -2.36025190
Pm       0.00000000       0.00000000       2.29636364       0.00000000       0.00000000       2.36025190
2
Properties=species:S:1:pos:R:3:forces:R:3 energy=-0.6216710321214188 pbc="F F F"
Pm       0.00000000       0.00000000       0.00000000       0.00000000       0.00000000      -2.35843706
Pm       0.00000000       0.00000000       2.35515152       0.00000000       0.00000000       2.35843706
2
Properties=species:S:1:pos:R:3:forces:R:3 energy=-0.7589577420705396 pbc="F F F"
Pm       0.00000000       0.00000000       0.00000000       0.00000000       0.00000000      -2.30447149
Pm       0.00000000       0.00000000       2.41393939       0.00000000       0.00000000       2.30447149
2
Properties=species:S:1:pos:R:3:forces:R:3 energy=-0.8918068302261909 pbc="F F F"
Pm       0.00000000       0.00000000       0.00000000       0.00000000       0.00000000      -2.20883060
Pm       0.00000000       0.00000000       2.47272727       0.00000000       0.00000000       2.20883060
2
Properties=species:S:1:pos:R:3:forces:R:3 energy=-1.0179714849922556 pbc="F F F"
Pm       0.00000000       0.00000000       0.00000000       0.00000000       0.00000000      -2.07788682
Pm       0.00000000       0.00000000       2.53151515       0.00000000       0.00000000       2.07788682
2
Properties=species:S:1:pos:R:3:forces:R:3 energy=-1.1355158953859676 pbc="F F F"
Pm       0.00000000       0.00000000       0.00000000       0.00000000       0.00000000      -1.91631341
Pm       0.00000000       0.00000000       2.59030303       0.00000000       0.00000000       1.91631341
2
Properties=species:S:1:pos:R:3:forces:R:3 energy=-1.2427805015300084 pbc="F F F"
Pm       0.00000000       0.00000000       0.00000000       0.00000000       0.00000000      -1.72910511
Pm       0.00000000       0.00000000       2.64909091       0.00000000       0.00000000       1.72910511
2
Properties=species:S:1:pos:R:3:forces:R:3 energy=-1.3384414040602606 pbc="F F F"
Pm       0.00000000       0.00000000       0.00000000       0.00000000       0.00000000      -1.52281201
Pm       0.00000000       0.00000000       2.70787879       0.00000000       0.00000000       1.52281201
2
Properties=species:S:1:pos:R:3:forces:R:3 energy=-1.421611235359653 pbc="F F F"
Pm       0.00000000       0.00000000       0.00000000       0.00000000       0.00000000      -1.30557716
Pm       0.00000000       0.00000000       2.76666667       0.00000000       0.00000000       1.30557716
2
Properties=species:S:1:pos:R:3:forces:R:3 energy=-1.4919019880214468 pbc="F F F"
Pm       0.00000000       0.00000000       0.00000000       0.00000000       0.00000000      -1.08606994
Pm       0.00000000       0.00000000       2.82545455       0.00000000       0.00000000       1.08606994
2
Properties=species:S:1:pos:R:3:forces:R:3 energy=-1.549414430565042 pbc="F F F"
Pm       0.00000000       0.00000000       0.00000000       0.00000000       0.00000000      -0.87194914
Pm       0.00000000       0.00000000       2.88424242       0.00000000       0.00000000       0.87194914
2
Properties=species:S:1:pos:R:3:forces:R:3 energy=-1.5946390698589374 pbc="F F F"
Pm       0.00000000       0.00000000       0.00000000       0.00000000       0.00000000      -0.66882002
Pm       0.00000000       0.00000000       2.94303030       0.00000000       0.00000000       0.66882002
2
Properties=species:S:1:pos:R:3:forces:R:3 energy=-1.6283335152720544 pbc="F F F"
Pm       0.00000000       0.00000000       0.00000000       0.00000000       0.00000000      -0.48008046
Pm       0.00000000       0.00000000       3.00181818       0.00000000       0.00000000       0.48008046
2
Properties=species:S:1:pos:R:3:forces:R:3 energy=-1.6514020721235956 pbc="F F F"
Pm       0.00000000       0.00000000       0.00000000       0.00000000       0.00000000      -0.30749673
Pm       0.00000000       0.00000000       3.06060606       0.00000000       0.00000000       0.30749673
2
Properties=species:S:1:pos:R:3:forces:R:3 energy=-1.6648213475827711 pbc="F F F"
Pm       0.00000000       0.00000000       0.00000000       0.00000000       0.00000000      -0.15191552
Pm       0.00000000       0.00000000       3.11939394       0.00000000       0.00000000       0.15191552
2
Properties=species:S:1:pos:R:3:forces:R:3 energy=-1.6696045765809524 pbc="F F F"
Pm       0.00000000       0.00000000       0.00000000       0.00000000       0.00000000      -0.01372854
Pm       0.00000000       0.00000000       3.17818182       0.00000000       0.00000000       0.01372854
2
Properties=species:S:1:pos:R:3:forces:R:3 energy=-1.6667792104652364 pbc="F F F"
Pm       0.00000000       0.00000000       0.00000000       0.00000000       0.00000000       0.10694020
Pm       0.00000000       0.00000000       3.23696970       0.00000000       0.00000000      -0.10694020
2
Properties=species:S:1:pos:R:3:forces:R:3 energy=-1.65737183327152 pbc="F F F"
Pm       0.00000000       0.00000000       0.00000000       0.00000000       0.00000000       0.21021798
Pm       0.00000000       0.00000000       3.29575758       0.00000000       0.00000000      -0.21021798
2
Properties=species:S:1:pos:R:3:forces:R:3 energy=-1.6423968875271469 pbc="F F F"
Pm       0.00000000       0.00000000       0.00000000       0.00000000       0.00000000       0.29642612
Pm       0.00000000       0.00000000       3.35454545       0.00000000       0.00000000      -0.29642612
2
Properties=species:S:1:pos:R:3:forces:R:3 energy=-1.62284530901863 pbc="F F F"
Pm       0.00000000       0.00000000       0.00000000       0.00000000       0.00000000       0.36601615
Pm       0.00000000       0.00000000       3.41333333       0.00000000       0.00000000      -0.36601615
2
Properties=species:S:1:pos:R:3:forces:R:3 energy=-1.5996771554947 pbc="F F F"
Pm       0.00000000       0.00000000       0.00000000       0.00000000       0.00000000       0.41954562
Pm       0.00000000       0.00000000       3.47212121       0.00000000       0.00000000      -0.41954562
2
Properties=species:S:1:pos:R:3:forces:R:3 energy=-1.5738178154715983 pbc="F F F"
Pm       0.00000000       0.00000000       0.00000000       0.00000000       0.00000000       0.45771891
Pm       0.00000000       0.00000000       3.53090909       0.00000000       0.00000000      -0.45771891
2
Properties=species:S:1:pos:R:3:forces:R:3 energy=-1.546142997702092 pbc="F F F"
Pm       0.00000000       0.00000000       0.00000000       0.00000000       0.00000000       0.48148412
Pm       0.00000000       0.00000000       3.58969697       0.00000000       0.00000000      -0.48148412
2
Properties=species:S:1:pos:R:3:forces:R:3 energy=-1.5174630969195635 pbc="F F F"
Pm       0.00000000       0.00000000       0.00000000       0.00000000       0.00000000       0.49219963
Pm       0.00000000       0.00000000       3.64848485       0.00000000       0.00000000      -0.49219963
2
Properties=species:S:1:pos:R:3:forces:R:3 energy=-1.4884894932870285 pbc="F F F"
Pm       0.00000000       0.00000000       0.00000000       0.00000000       0.00000000       0.49187791
Pm       0.00000000       0.00000000       3.70727273       0.00000000       0.00000000      -0.49187791
2
Properties=species:S:1:pos:R:3:forces:R:3 energy=-1.459789889263325 pbc="F F F"
Pm       0.00000000       0.00000000       0.00000000       0.00000000       0.00000000       0.48341328
Pm       0.00000000       0.00000000       3.76606061       0.00000000       0.00000000      -0.48341328
2
Properties=species:S:1:pos:R:3:forces:R:3 energy=-1.4317381886804426 pbc="F F F"
Pm       0.00000000       0.00000000       0.00000000       0.00000000       0.00000000       0.47054741
Pm       0.00000000       0.00000000       3.82484848       0.00000000       0.00000000      -0.47054741
2
Properties=species:S:1:pos:R:3:forces:R:3 energy=-1.4044710942267418 pbc="F F F"
Pm       0.00000000       0.00000000       0.00000000       0.00000000       0.00000000       0.45735505
Pm       0.00000000       0.00000000       3.88363636       0.00000000       0.00000000      -0.45735505
2
Properties=species:S:1:pos:R:3:forces:R:3 energy=-1.3779004113463562 pbc="F F F"
Pm       0.00000000       0.00000000       0.00000000       0.00000000       0.00000000       0.44736692
Pm       0.00000000       0.00000000       3.94242424       0.00000000       0.00000000      -0.44736692
2
Properties=species:S:1:pos:R:3:forces:R:3 energy=-1.351766859978028 pbc="F F F"
Pm       0.00000000       0.00000000       0.00000000       0.00000000       0.00000000       0.44268596
Pm       0.00000000       0.00000000       4.00121212       0.00000000       0.00000000      -0.44268596
2
Properties=species:S:1:pos:R:3:forces:R:3 energy=-1.3257412982491308 pbc="F F F"
Pm       0.00000000       0.00000000       0.00000000       0.00000000       0.00000000       0.44356996
Pm       0.00000000       0.00000000       4.06000000       0.00000000       0.00000000      -0.44356996
2
Properties=species:S:1:pos:R:3:forces:R:3 energy=-1.2995311383573724 pbc="F F F"
Pm       0.00000000       0.00000000       0.00000000       0.00000000       0.00000000       0.44864866
Pm       0.00000000       0.00000000       4.11878788       0.00000000       0.00000000      -0.44864866
2
Properties=species:S:1:pos:R:3:forces:R:3 energy=-1.272954269001605 pbc="F F F"
Pm       0.00000000       0.00000000       0.00000000       0.00000000       0.00000000       0.45559385
Pm       0.00000000       0.00000000       4.17757576       0.00000000       0.00000000      -0.45559385
2
Properties=species:S:1:pos:R:3:forces:R:3 energy=-1.2459758605420257 pbc="F F F"
Pm       0.00000000       0.00000000       0.00000000       0.00000000       0.00000000       0.46193483
Pm       0.00000000       0.00000000       4.23636364       0.00000000       0.00000000      -0.46193483
2
Properties=species:S:1:pos:R:3:forces:R:3 energy=-1.218692817107383 pbc="F F F"
Pm       0.00000000       0.00000000       0.00000000       0.00000000       0.00000000       0.46568018
Pm       0.00000000       0.00000000       4.29515152       0.00000000       0.00000000      -0.46568018
2
Properties=species:S:1:pos:R:3:forces:R:3 energy=-1.1912977523828567 pbc="F F F"
Pm       0.00000000       0.00000000       0.00000000       0.00000000       0.00000000       0.46567333
Pm       0.00000000       0.00000000       4.35393939       0.00000000       0.00000000      -0.46567333
2
Properties=species:S:1:pos:R:3:forces:R:3 energy=-1.1640210210491653 pbc="F F F"
Pm       0.00000000       0.00000000       0.00000000       0.00000000       0.00000000       0.46165028
Pm       0.00000000       0.00000000       4.41272727       0.00000000       0.00000000      -0.46165028
2
Properties=species:S:1:pos:R:3:forces:R:3 energy=-1.1370870651759146 pbc="F F F"
Pm       0.00000000       0.00000000       0.00000000       0.00000000       0.00000000       0.45414788
Pm       0.00000000       0.00000000       4.47151515       0.00000000       0.00000000      -0.45414788
2
Properties=species:S:1:pos:R:3:forces:R:3 energy=-1.1106705794651133 pbc="F F F"
Pm       0.00000000       0.00000000       0.00000000       0.00000000       0.00000000       0.44426459
Pm       0.00000000       0.00000000       4.53030303       0.00000000       0.00000000      -0.44426459
2
Properties=species:S:1:pos:R:3:forces:R:3 energy=-1.0848722775033246 pbc="F F F"
Pm       0.00000000       0.00000000       0.00000000       0.00000000       0.00000000       0.43337080
Pm       0.00000000       0.00000000       4.58909091       0.00000000       0.00000000      -0.43337080
2
Properties=species:S:1:pos:R:3:forces:R:3 energy=-1.059710724509439 pbc="F F F"
Pm       0.00000000       0.00000000       0.00000000       0.00000000       0.00000000       0.42279962
Pm       0.00000000       0.00000000       4.64787879       0.00000000       0.00000000      -0.42279962
2
Properties=species:S:1:pos:R:3:forces:R:3 energy=-1.0351344638360345 pbc="F F F"
Pm       0.00000000       0.00000000       0.00000000       0.00000000       0.00000000       0.41356212
Pm       0.00000000       0.00000000       4.70666667       0.00000000       0.00000000      -0.41356212
2
Properties=species:S:1:pos:R:3:forces:R:3 energy=-1.0110486245676298 pbc="F F F"
Pm       0.00000000       0.00000000       0.00000000       0.00000000       0.00000000       0.40621081
Pm       0.00000000       0.00000000       4.76545455       0.00000000       0.00000000      -0.40621081
2
Properties=species:S:1:pos:R:3:forces:R:3 energy=-0.9873349956146844 pbc="F F F"
Pm       0.00000000       0.00000000       0.00000000       0.00000000       0.00000000       0.40079206
Pm       0.00000000       0.00000000       4.82424242       0.00000000       0.00000000      -0.40079206
2
Properties=species:S:1:pos:R:3:forces:R:3 energy=-0.963894872533703 pbc="F F F"
Pm       0.00000000       0.00000000       0.00000000       0.00000000       0.00000000       0.39694896
Pm       0.00000000       0.00000000       4.88303030       0.00000000       0.00000000      -0.39694896
2
Properties=species:S:1:pos:R:3:forces:R:3 energy=-0.9406456563106836 pbc="F F F"
Pm       0.00000000       0.00000000       0.00000000       0.00000000       0.00000000       0.39404380
Pm       0.00000000       0.00000000       4.94181818       0.00000000       0.00000000      -0.39404380
2
Properties=species:S:1:pos:R:3:forces:R:3 energy=-0.9175613882713642 pbc="F F F"
Pm       0.00000000       0.00000000       0.00000000       0.00000000       0.00000000       0.39126635
Pm       0.00000000       0.00000000       5.00060606       0.00000000       0.00000000      -0.39126635
2
Properties=species:S:1:pos:R:3:forces:R:3 energy=-0.8946563562200626 pbc="F F F"
Pm       0.00000000       0.00000000       0.00000000       0.00000000       0.00000000       0.38771853
Pm       0.00000000       0.00000000       5.05939394       0.00000000       0.00000000      -0.38771853
2
Properties=species:S:1:pos:R:3:forces:R:3 energy=-0.8720089693917024 pbc="F F F"
Pm       0.00000000       0.00000000       0.00000000       0.00000000       0.00000000       0.38243645
Pm       0.00000000       0.00000000       5.11818182       0.00000000       0.00000000      -0.38243645
2
Properties=species:S:1:pos:R:3:forces:R:3 energy=-0.8497453709262979 pbc="F F F"
Pm       0.00000000       0.00000000       0.00000000       0.00000000       0.00000000       0.37445194
Pm       0.00000000       0.00000000       5.17696970       0.00000000       0.00000000      -0.37445194
2
Properties=species:S:1:pos:R:3:forces:R:3 energy=-0.8280540029930584 pbc="F F F"
Pm       0.00000000       0.00000000       0.00000000       0.00000000       0.00000000       0.36285844
Pm       0.00000000       0.00000000       5.23575758       0.00000000       0.00000000      -0.36285844
2
Properties=species:S:1:pos:R:3:forces:R:3 energy=-0.8071674224539817 pbc="F F F"
Pm       0.00000000       0.00000000       0.00000000       0.00000000       0.00000000       0.34693706
Pm       0.00000000       0.00000000       5.29454545       0.00000000       0.00000000      -0.34693706
2
Properties=species:S:1:pos:R:3:forces:R:3 energy=-0.7873546383752065 pbc="F F F"
Pm       0.00000000       0.00000000       0.00000000       0.00000000       0.00000000       0.32628298
Pm       0.00000000       0.00000000       5.35333333       0.00000000       0.00000000      -0.32628298
2
Properties=species:S:1:pos:R:3:forces:R:3 energy=-0.7688973870424883 pbc="F F F"
Pm       0.00000000       0.00000000       0.00000000       0.00000000       0.00000000       0.30092838
Pm       0.00000000       0.00000000       5.41212121       0.00000000       0.00000000      -0.30092838
2
Properties=species:S:1:pos:R:3:forces:R:3 energy=-0.7520549018643392 pbc="F F F"
Pm       0.00000000       0.00000000       0.00000000       0.00000000       0.00000000       0.27138713
Pm       0.00000000       0.00000000       5.47090909       0.00000000       0.00000000      -0.27138713
2
Properties=species:S:1:pos:R:3:forces:R:3 energy=-0.7370503324325087 pbc="F F F"
Pm       0.00000000       0.00000000       0.00000000       0.00000000       0.00000000       0.23862077
Pm       0.00000000       0.00000000       5.52969697       0.00000000       0.00000000      -0.23862077
2
Properties=species:S:1:pos:R:3:forces:R:3 energy=-0.7240356019561921 pbc="F F F"
Pm       0.00000000       0.00000000       0.00000000       0.00000000       0.00000000       0.20399006
Pm       0.00000000       0.00000000       5.58848485       0.00000000       0.00000000      -0.20399006
2
Properties=species:S:1:pos:R:3:forces:R:3 energy=-0.7130769690987535 pbc="F F F"
Pm       0.00000000       0.00000000       0.00000000       0.00000000       0.00000000       0.16910821
Pm       0.00000000       0.00000000       5.64727273       0.00000000       0.00000000      -0.16910821
2
Properties=species:S:1:pos:R:3:forces:R:3 energy=-0.7041276403513993 pbc="F F F"
Pm       0.00000000       0.00000000       0.00000000       0.00000000       0.00000000       0.13566580
Pm       0.00000000       0.00000000       5.70606061       0.00000000       0.00000000      -0.13566580
2
Properties=species:S:1:pos:R:3:forces:R:3 energy=-0.6970542370793039 pbc="F F F"
Pm       0.00000000       0.00000000       0.00000000       0.00000000       0.00000000       0.10534107
Pm       0.00000000       0.00000000       5.76484848       0.00000000       0.00000000      -0.10534107
2
Properties=species:S:1:pos:R:3:forces:R:3 energy=-0.6916442233434761 pbc="F F F"
Pm       0.00000000       0.00000000       0.00000000       0.00000000       0.00000000       0.07966019
Pm       0.00000000       0.00000000       5.82363636       0.00000000       0.00000000      -0.07966019
2
Properties=species:S:1:pos:R:3:forces:R:3 energy=-0.6875792767117266 pbc="F F F"
Pm       0.00000000       0.00000000       0.00000000       0.00000000       0.00000000       0.05991281
Pm       0.00000000       0.00000000       5.88242424       0.00000000       0.00000000      -0.05991281
2
Properties=species:S:1:pos:R:3:forces:R:3 energy=-0.6844650220569208 pbc="F F F"
Pm       0.00000000       0.00000000       0.00000000       0.00000000       0.00000000       0.04715742
Pm       0.00000000       0.00000000       5.94121212       0.00000000       0.00000000      -0.04715742
2
Properties=species:S:1:pos:R:3:forces:R:3 energy=-0.6818779455801096 pbc="F F F"
Pm       0.00000000       0.00000000       0.00000000       0.00000000       0.00000000       0.04226183
Pm       0.00000000       0.00000000       6.00000000       0.00000000       0.00000000      -0.04226183
