2
Properties=species:S:1:pos:R:3:forces:R:3 energy=16716.53116266171 pbc="F F F"
Pt       0.00000000       0.00000000       0.00000000       0.00000000       0.00000000 -295149.56250000
Pt       0.00000000       0.00000000       0.18000000       0.00000000       0.00000000  295149.56250000
2
Properties=species:S:1:pos:R:3:forces:R:3 energy=6431.286533755461 pbc="F F F"
Pt       0.00000000       0.00000000       0.00000000       0.00000000       0.00000000  -96919.20312500
Pt       0.00000000       0.00000000       0.23878788       0.00000000       0.00000000   96919.20312500
2
Properties=species:S:1:pos:R:3:forces:R:3 energy=2792.7252544617545 pbc="F F F"
Pt       0.00000000       0.00000000       0.00000000       0.00000000       0.00000000  -37426.53515625
Pt       0.00000000       0.00000000       0.29757576       0.00000000       0.00000000   37426.53515625
2
Properties=species:S:1:pos:R:3:forces:R:3 energy=1321.0703472383598 pbc="F F F"
Pt       0.00000000       0.00000000       0.00000000       0.00000000       0.00000000  -15987.94726562
Pt       0.00000000       0.00000000       0.35636364       0.00000000       0.00000000   15987.94726562
2
Properties=species:S:1:pos:R:3:forces:R:3 energy=671.2875713657892 pbc="F F F"
Pt       0.00000000       0.00000000       0.00000000       0.00000000       0.00000000   -7344.78125000
Pt       0.00000000       0.00000000       0.41515152       0.00000000       0.00000000    7344.78125000
2
Properties=species:S:1:pos:R:3:forces:R:3 energy=364.80460018705423 pbc="F F F"
Pt       0.00000000       0.00000000       0.00000000       0.00000000       0.00000000   -3575.57397461
Pt       0.00000000       0.00000000       0.47393939       0.00000000       0.00000000    3575.57397461
2
Properties=species:S:1:pos:R:3:forces:R:3 energy=212.34842345458432 pbc="F F F"
Pt       0.00000000       0.00000000       0.00000000       0.00000000       0.00000000   -1823.66235352
Pt       0.00000000       0.00000000       0.53272727       0.00000000       0.00000000    1823.66235352
2
Properties=species:S:1:pos:R:3:forces:R:3 energy=133.33942081021914 pbc="F F F"
Pt       0.00000000       0.00000000       0.00000000       0.00000000       0.00000000    -961.20727539
Pt       0.00000000       0.00000000       0.59151515       0.00000000       0.00000000     961.20727539
2
Properties=species:S:1:pos:R:3:forces:R:3 energy=91.35642679715356 pbc="F F F"
Pt       0.00000000       0.00000000       0.00000000       0.00000000       0.00000000    -513.87695312
Pt       0.00000000       0.00000000       0.65030303       0.00000000       0.00000000     513.87695312
2
Properties=species:S:1:pos:R:3:forces:R:3 energy=68.95499105597656 pbc="F F F"
Pt       0.00000000       0.00000000       0.00000000       0.00000000       0.00000000    -272.36199951
Pt       0.00000000       0.00000000       0.70909091       0.00000000       0.00000000     272.36199951
2
Properties=species:S:1:pos:R:3:forces:R:3 energy=57.20642554370736 pbc="F F F"
Pt       0.00000000       0.00000000       0.00000000       0.00000000       0.00000000    -140.93684387
Pt       0.00000000       0.00000000       0.76787879       0.00000000       0.00000000     140.93684387
2
Properties=species:S:1:pos:R:3:forces:R:3 energy=51.15009034157874 pbc="F F F"
Pt       0.00000000       0.00000000       0.00000000       0.00000000       0.00000000     -72.93145752
Pt       0.00000000       0.00000000       0.82666667       0.00000000       0.00000000      72.93145752
2
Properties=species:S:1:pos:R:3:forces:R:3 energy=47.926908005480875 pbc="F F F"
Pt       0.00000000       0.00000000       0.00000000       0.00000000       0.00000000     -41.88021088
Pt       0.00000000       0.00000000       0.88545455       0.00000000       0.00000000      41.88021088
2
Properties=species:S:1:pos:R:3:forces:R:3 energy=45.61872673063017 pbc="F F F"
Pt       0.00000000       0.00000000       0.00000000       0.00000000       0.00000000     -41.43950653
Pt       0.00000000       0.00000000       0.94424242       0.00000000       0.00000000      41.43950653
2
Properties=species:S:1:pos:R:3:forces:R:3 energy=42.61102552526135 pbc="F F F"
Pt       0.00000000       0.00000000       0.00000000       0.00000000       0.00000000     -63.31732178
Pt       0.00000000       0.00000000       1.00303030       0.00000000       0.00000000      63.31732178
2
Properties=species:S:1:pos:R:3:forces:R:3 energy=38.10816921983871 pbc="F F F"
Pt       0.00000000       0.00000000       0.00000000       0.00000000       0.00000000     -88.44377899
Pt       0.00000000       0.00000000       1.06181818       0.00000000       0.00000000      88.44377899
2
Properties=species:S:1:pos:R:3:forces:R:3 energy=32.566880134072356 pbc="F F F"
Pt       0.00000000       0.00000000       0.00000000       0.00000000       0.00000000     -96.21247864
Pt       0.00000000       0.00000000       1.12060606       0.00000000       0.00000000      96.21247864
2
Properties=species:S:1:pos:R:3:forces:R:3 energy=27.149221945790657 pbc="F F F"
Pt       0.00000000       0.00000000       0.00000000       0.00000000       0.00000000     -86.82672882
Pt       0.00000000       0.00000000       1.17939394       0.00000000       0.00000000      86.82672882
2
Properties=species:S:1:pos:R:3:forces:R:3 energy=22.32375400882935 pbc="F F F"
Pt       0.00000000       0.00000000       0.00000000       0.00000000       0.00000000     -78.41992950
Pt       0.00000000       0.00000000       1.23818182       0.00000000       0.00000000      78.41992950
2
Properties=species:S:1:pos:R:3:forces:R:3 energy=17.82378330615655 pbc="F F F"
Pt       0.00000000       0.00000000       0.00000000       0.00000000       0.00000000     -75.06268311
Pt       0.00000000       0.00000000       1.29696970       0.00000000       0.00000000      75.06268311
2
Properties=species:S:1:pos:R:3:forces:R:3 energy=13.521422241822883 pbc="F F F"
Pt       0.00000000       0.00000000       0.00000000       0.00000000       0.00000000     -70.64272308
Pt       0.00000000       0.00000000       1.35575758       0.00000000       0.00000000      70.64272308
2
Properties=species:S:1:pos:R:3:forces:R:3 energy=9.616679350714332 pbc="F F F"
Pt       0.00000000       0.00000000       0.00000000       0.00000000       0.00000000     -61.36386490
Pt       0.00000000       0.00000000       1.41454545       0.00000000       0.00000000      61.36386490
2
Properties=species:S:1:pos:R:3:forces:R:3 energy=6.378682640153985 pbc="F F F"
Pt       0.00000000       0.00000000       0.00000000       0.00000000       0.00000000     -48.50764084
Pt       0.00000000       0.00000000       1.47333333       0.00000000       0.00000000      48.50764084
2
Properties=species:S:1:pos:R:3:forces:R:3 energy=3.9056392876254318 pbc="F F F"
Pt       0.00000000       0.00000000       0.00000000       0.00000000       0.00000000     -35.97409439
Pt       0.00000000       0.00000000       1.53212121       0.00000000       0.00000000      35.97409439
2
Properties=species:S:1:pos:R:3:forces:R:3 energy=2.0926184146112052 pbc="F F F"
Pt       0.00000000       0.00000000       0.00000000       0.00000000       0.00000000     -26.23359299
Pt       0.00000000       0.00000000       1.59090909       0.00000000       0.00000000      26.23359299
2
Properties=species:S:1:pos:R:3:forces:R:3 energy=0.7626712154905947 pbc="F F F"
Pt       0.00000000       0.00000000       0.00000000       0.00000000       0.00000000     -19.45467949
Pt       0.00000000       0.00000000       1.64969697       0.00000000       0.00000000      19.45467949
2
Properties=species:S:1:pos:R:3:forces:R:3 energy=-0.23871904176031666 pbc="F F F"
Pt       0.00000000       0.00000000       0.00000000       0.00000000       0.00000000     -14.91831684
Pt       0.00000000       0.00000000       1.70848485       0.00000000       0.00000000      14.91831684
2
Properties=species:S:1:pos:R:3:forces:R:3 energy=-1.01995399194951 pbc="F F F"
Pt       0.00000000       0.00000000       0.00000000       0.00000000       0.00000000     -11.84741688
Pt       0.00000000       0.00000000       1.76727273       0.00000000       0.00000000      11.84741688
2
Properties=species:S:1:pos:R:3:forces:R:3 energy=-1.6483504159659585 pbc="F F F"
Pt       0.00000000       0.00000000       0.00000000       0.00000000       0.00000000      -9.63332653
Pt       0.00000000       0.00000000       1.82606061       0.00000000       0.00000000       9.63332653
2
Properties=species:S:1:pos:R:3:forces:R:3 energy=-2.1611406609433725 pbc="F F F"
Pt       0.00000000       0.00000000       0.00000000       0.00000000       0.00000000      -7.86148262
Pt       0.00000000       0.00000000       1.88484848       0.00000000       0.00000000       7.86148262
2
Properties=species:S:1:pos:R:3:forces:R:3 energy=-2.576834563762457 pbc="F F F"
Pt       0.00000000       0.00000000       0.00000000       0.00000000       0.00000000      -6.30751228
Pt       0.00000000       0.00000000       1.94363636       0.00000000       0.00000000       6.30751228
2
Properties=species:S:1:pos:R:3:forces:R:3 energy=-2.9056014641056227 pbc="F F F"
Pt       0.00000000       0.00000000       0.00000000       0.00000000       0.00000000      -4.90153027
Pt       0.00000000       0.00000000       2.00242424       0.00000000       0.00000000       4.90153027
2
Properties=species:S:1:pos:R:3:forces:R:3 energy=-3.156174338926132 pbc="F F F"
Pt       0.00000000       0.00000000       0.00000000       0.00000000       0.00000000      -3.65062785
Pt       0.00000000       0.00000000       2.06121212       0.00000000       0.00000000       3.65062785
2
Properties=species:S:1:pos:R:3:forces:R:3 energy=-3.338133457130193 pbc="F F F"
Pt       0.00000000       0.00000000       0.00000000       0.00000000       0.00000000      -2.56757283
Pt       0.00000000       0.00000000       2.12000000       0.00000000       0.00000000       2.56757283
2
Properties=species:S:1:pos:R:3:forces:R:3 energy=-3.461139912866464 pbc="F F F"
Pt       0.00000000       0.00000000       0.00000000       0.00000000       0.00000000      -1.64096141
Pt       0.00000000       0.00000000       2.17878788       0.00000000       0.00000000       1.64096141
2
Properties=species:S:1:pos:R:3:forces:R:3 energy=-3.533519718445461 pbc="F F F"
Pt       0.00000000       0.00000000       0.00000000       0.00000000       0.00000000      -0.83929598
Pt       0.00000000       0.00000000       2.23757576       0.00000000       0.00000000       0.83929598
2
Properties=species:S:1:pos:R:3:forces:R:3 energy=-3.561638562127431 pbc="F F F"
Pt       0.00000000       0.00000000       0.00000000       0.00000000       0.00000000      -0.13110660
Pt       0.00000000       0.00000000       2.29636364       0.00000000       0.00000000       0.13110660
2
Properties=species:S:1:pos:R:3:forces:R:3 energy=-3.5505031296333818 pbc="F F F"
Pt       0.00000000       0.00000000       0.00000000       0.00000000       0.00000000       0.49626911
Pt       0.00000000       0.00000000       2.35515152       0.00000000       0.00000000      -0.49626911
2
Properties=species:S:1:pos:R:3:forces:R:3 energy=-3.5050410496315147 pbc="F F F"
Pt       0.00000000       0.00000000       0.00000000       0.00000000       0.00000000       1.03396595
Pt       0.00000000       0.00000000       2.41393939       0.00000000       0.00000000      -1.03396595
2
Properties=species:S:1:pos:R:3:forces:R:3 energy=-3.4310373352318213 pbc="F F F"
Pt       0.00000000       0.00000000       0.00000000       0.00000000       0.00000000       1.46452844
Pt       0.00000000       0.00000000       2.47272727       0.00000000       0.00000000      -1.46452844
2
Properties=species:S:1:pos:R:3:forces:R:3 energy=-3.335170275789069 pbc="F F F"
Pt       0.00000000       0.00000000       0.00000000       0.00000000       0.00000000       1.77703822
Pt       0.00000000       0.00000000       2.53151515       0.00000000       0.00000000      -1.77703822
2
Properties=species:S:1:pos:R:3:forces:R:3 energy=-3.224378169507403 pbc="F F F"
Pt       0.00000000       0.00000000       0.00000000       0.00000000       0.00000000       1.97377169
Pt       0.00000000       0.00000000       2.59030303       0.00000000       0.00000000      -1.97377169
2
Properties=species:S:1:pos:R:3:forces:R:3 energy=-3.105104606622091 pbc="F F F"
Pt       0.00000000       0.00000000       0.00000000       0.00000000       0.00000000       2.06852698
Pt       0.00000000       0.00000000       2.64909091       0.00000000       0.00000000      -2.06852698
2
Properties=species:S:1:pos:R:3:forces:R:3 energy=-2.9827837695045814 pbc="F F F"
Pt       0.00000000       0.00000000       0.00000000       0.00000000       0.00000000       2.08085680
Pt       0.00000000       0.00000000       2.70787879       0.00000000       0.00000000      -2.08085680
2
Properties=species:S:1:pos:R:3:forces:R:3 energy=-2.8616823975377326 pbc="F F F"
Pt       0.00000000       0.00000000       0.00000000       0.00000000       0.00000000       2.03002024
Pt       0.00000000       0.00000000       2.76666667       0.00000000       0.00000000      -2.03002024
2
Properties=species:S:1:pos:R:3:forces:R:3 energy=-2.7450032854997928 pbc="F F F"
Pt       0.00000000       0.00000000       0.00000000       0.00000000       0.00000000       1.93314552
Pt       0.00000000       0.00000000       2.82545455       0.00000000       0.00000000      -1.93314552
2
Properties=species:S:1:pos:R:3:forces:R:3 energy=-2.6349790868258065 pbc="F F F"
Pt       0.00000000       0.00000000       0.00000000       0.00000000       0.00000000       1.80618012
Pt       0.00000000       0.00000000       2.88424242       0.00000000       0.00000000      -1.80618012
2
Properties=species:S:1:pos:R:3:forces:R:3 energy=-2.5329497339395055 pbc="F F F"
Pt       0.00000000       0.00000000       0.00000000       0.00000000       0.00000000       1.66334379
Pt       0.00000000       0.00000000       2.94303030       0.00000000       0.00000000      -1.66334379
2
Properties=species:S:1:pos:R:3:forces:R:3 energy=-2.4394835918120896 pbc="F F F"
Pt       0.00000000       0.00000000       0.00000000       0.00000000       0.00000000       1.51674366
Pt       0.00000000       0.00000000       3.00181818       0.00000000       0.00000000      -1.51674366
2
Properties=species:S:1:pos:R:3:forces:R:3 energy=-2.35448473022935 pbc="F F F"
Pt       0.00000000       0.00000000       0.00000000       0.00000000       0.00000000       1.37688923
Pt       0.00000000       0.00000000       3.06060606       0.00000000       0.00000000      -1.37688923
2
Properties=species:S:1:pos:R:3:forces:R:3 energy=-2.2772891071154433 pbc="F F F"
Pt       0.00000000       0.00000000       0.00000000       0.00000000       0.00000000       1.25255585
Pt       0.00000000       0.00000000       3.11939394       0.00000000       0.00000000      -1.25255585
2
Properties=species:S:1:pos:R:3:forces:R:3 energy=-2.206790249683089 pbc="F F F"
Pt       0.00000000       0.00000000       0.00000000       0.00000000       0.00000000       1.14972878
Pt       0.00000000       0.00000000       3.17818182       0.00000000       0.00000000      -1.14972878
2
Properties=species:S:1:pos:R:3:forces:R:3 energy=-2.1416403225075147 pbc="F F F"
Pt       0.00000000       0.00000000       0.00000000       0.00000000       0.00000000       1.07070124
Pt       0.00000000       0.00000000       3.23696970       0.00000000       0.00000000      -1.07070124
2
Properties=species:S:1:pos:R:3:forces:R:3 energy=-2.0804576355576314 pbc="F F F"
Pt       0.00000000       0.00000000       0.00000000       0.00000000       0.00000000       1.01427817
Pt       0.00000000       0.00000000       3.29575758       0.00000000       0.00000000      -1.01427817
2
Properties=species:S:1:pos:R:3:forces:R:3 energy=-2.022010107628689 pbc="F F F"
Pt       0.00000000       0.00000000       0.00000000       0.00000000       0.00000000       0.97698474
Pt       0.00000000       0.00000000       3.35454545       0.00000000       0.00000000      -0.97698474
2
Properties=species:S:1:pos:R:3:forces:R:3 energy=-1.965298875235809 pbc="F F F"
Pt       0.00000000       0.00000000       0.00000000       0.00000000       0.00000000       0.95446110
Pt       0.00000000       0.00000000       3.41333333       0.00000000       0.00000000      -0.95446110
2
Properties=species:S:1:pos:R:3:forces:R:3 energy=-1.9095846675453263 pbc="F F F"
Pt       0.00000000       0.00000000       0.00000000       0.00000000       0.00000000       0.94234097
Pt       0.00000000       0.00000000       3.47212121       0.00000000       0.00000000      -0.94234097
2
Properties=species:S:1:pos:R:3:forces:R:3 energy=-1.8543811591649737 pbc="F F F"
Pt       0.00000000       0.00000000       0.00000000       0.00000000       0.00000000       0.93642706
Pt       0.00000000       0.00000000       3.53090909       0.00000000       0.00000000      -0.93642706
2
Properties=species:S:1:pos:R:3:forces:R:3 energy=-1.7994439153581756 pbc="F F F"
Pt       0.00000000       0.00000000       0.00000000       0.00000000       0.00000000       0.93253046
Pt       0.00000000       0.00000000       3.58969697       0.00000000       0.00000000      -0.93253046
2
Properties=species:S:1:pos:R:3:forces:R:3 energy=-1.744780111352944 pbc="F F F"
Pt       0.00000000       0.00000000       0.00000000       0.00000000       0.00000000       0.92647165
Pt       0.00000000       0.00000000       3.64848485       0.00000000       0.00000000      -0.92647165
2
Properties=species:S:1:pos:R:3:forces:R:3 energy=-1.6906304283689775 pbc="F F F"
Pt       0.00000000       0.00000000       0.00000000       0.00000000       0.00000000       0.91448605
Pt       0.00000000       0.00000000       3.70727273       0.00000000       0.00000000      -0.91448605
2
Properties=species:S:1:pos:R:3:forces:R:3 energy=-1.6374281311532546 pbc="F F F"
Pt       0.00000000       0.00000000       0.00000000       0.00000000       0.00000000       0.89388698
Pt       0.00000000       0.00000000       3.76606061       0.00000000       0.00000000      -0.89388698
2
Properties=species:S:1:pos:R:3:forces:R:3 energy=-1.5857214754038238 pbc="F F F"
Pt       0.00000000       0.00000000       0.00000000       0.00000000       0.00000000       0.86361837
Pt       0.00000000       0.00000000       3.82484848       0.00000000       0.00000000      -0.86361837
2
Properties=species:S:1:pos:R:3:forces:R:3 energy=-1.536063674427727 pbc="F F F"
Pt       0.00000000       0.00000000       0.00000000       0.00000000       0.00000000       0.82440037
Pt       0.00000000       0.00000000       3.88363636       0.00000000       0.00000000      -0.82440037
2
Properties=species:S:1:pos:R:3:forces:R:3 energy=-1.4889252498029093 pbc="F F F"
Pt       0.00000000       0.00000000       0.00000000       0.00000000       0.00000000       0.77840030
Pt       0.00000000       0.00000000       3.94242424       0.00000000       0.00000000      -0.77840030
2
Properties=species:S:1:pos:R:3:forces:R:3 energy=-1.4446186245829584 pbc="F F F"
Pt       0.00000000       0.00000000       0.00000000       0.00000000       0.00000000       0.72856939
Pt       0.00000000       0.00000000       4.00121212       0.00000000       0.00000000      -0.72856939
2
Properties=species:S:1:pos:R:3:forces:R:3 energy=-1.4032787840497503 pbc="F F F"
Pt       0.00000000       0.00000000       0.00000000       0.00000000       0.00000000       0.67793363
Pt       0.00000000       0.00000000       4.06000000       0.00000000       0.00000000      -0.67793363
2
Properties=species:S:1:pos:R:3:forces:R:3 energy=-1.3648757661783217 pbc="F F F"
Pt       0.00000000       0.00000000       0.00000000       0.00000000       0.00000000       0.62903410
Pt       0.00000000       0.00000000       4.11878788       0.00000000       0.00000000      -0.62903410
2
Properties=species:S:1:pos:R:3:forces:R:3 energy=-1.329250867582804 pbc="F F F"
Pt       0.00000000       0.00000000       0.00000000       0.00000000       0.00000000       0.58360374
Pt       0.00000000       0.00000000       4.17757576       0.00000000       0.00000000      -0.58360374
2
Properties=species:S:1:pos:R:3:forces:R:3 energy=-1.2961725610087347 pbc="F F F"
Pt       0.00000000       0.00000000       0.00000000       0.00000000       0.00000000       0.54246950
Pt       0.00000000       0.00000000       4.23636364       0.00000000       0.00000000      -0.54246950
2
Properties=species:S:1:pos:R:3:forces:R:3 energy=-1.2653843667823037 pbc="F F F"
Pt       0.00000000       0.00000000       0.00000000       0.00000000       0.00000000       0.50562465
Pt       0.00000000       0.00000000       4.29515152       0.00000000       0.00000000      -0.50562465
2
Properties=species:S:1:pos:R:3:forces:R:3 energy=-1.2366532296071562 pbc="F F F"
Pt       0.00000000       0.00000000       0.00000000       0.00000000       0.00000000       0.47236988
Pt       0.00000000       0.00000000       4.35393939       0.00000000       0.00000000      -0.47236988
2
Properties=species:S:1:pos:R:3:forces:R:3 energy=-1.2097986634837585 pbc="F F F"
Pt       0.00000000       0.00000000       0.00000000       0.00000000       0.00000000       0.44152349
Pt       0.00000000       0.00000000       4.41272727       0.00000000       0.00000000      -0.44152349
2
Properties=species:S:1:pos:R:3:forces:R:3 energy=-1.1847207912350208 pbc="F F F"
Pt       0.00000000       0.00000000       0.00000000       0.00000000       0.00000000       0.41167590
Pt       0.00000000       0.00000000       4.47151515       0.00000000       0.00000000      -0.41167590
2
Properties=species:S:1:pos:R:3:forces:R:3 energy=-1.1614023223789345 pbc="F F F"
Pt       0.00000000       0.00000000       0.00000000       0.00000000       0.00000000       0.38146734
Pt       0.00000000       0.00000000       4.53030303       0.00000000       0.00000000      -0.38146734
2
Properties=species:S:1:pos:R:3:forces:R:3 energy=-1.1398972999380228 pbc="F F F"
Pt       0.00000000       0.00000000       0.00000000       0.00000000       0.00000000       0.34986797
Pt       0.00000000       0.00000000       4.58909091       0.00000000       0.00000000      -0.34986797
2
Properties=species:S:1:pos:R:3:forces:R:3 energy=-1.1203039734063471 pbc="F F F"
Pt       0.00000000       0.00000000       0.00000000       0.00000000       0.00000000       0.31640473
Pt       0.00000000       0.00000000       4.64787879       0.00000000       0.00000000      -0.31640473
2
Properties=species:S:1:pos:R:3:forces:R:3 energy=-1.1027291508361574 pbc="F F F"
Pt       0.00000000       0.00000000       0.00000000       0.00000000       0.00000000       0.28124335
Pt       0.00000000       0.00000000       4.70666667       0.00000000       0.00000000      -0.28124335
2
Properties=species:S:1:pos:R:3:forces:R:3 energy=-1.087255278067043 pbc="F F F"
Pt       0.00000000       0.00000000       0.00000000       0.00000000       0.00000000       0.24513641
Pt       0.00000000       0.00000000       4.76545455       0.00000000       0.00000000      -0.24513641
2
Properties=species:S:1:pos:R:3:forces:R:3 energy=-1.073903066029683 pbc="F F F"
Pt       0.00000000       0.00000000       0.00000000       0.00000000       0.00000000       0.20921837
Pt       0.00000000       0.00000000       4.82424242       0.00000000       0.00000000      -0.20921837
2
Properties=species:S:1:pos:R:3:forces:R:3 energy=-1.062627293078134 pbc="F F F"
Pt       0.00000000       0.00000000       0.00000000       0.00000000       0.00000000       0.17478660
Pt       0.00000000       0.00000000       4.88303030       0.00000000       0.00000000      -0.17478660
2
Properties=species:S:1:pos:R:3:forces:R:3 energy=-1.0533006404597434 pbc="F F F"
Pt       0.00000000       0.00000000       0.00000000       0.00000000       0.00000000       0.14302619
Pt       0.00000000       0.00000000       4.94181818       0.00000000       0.00000000      -0.14302619
2
Properties=species:S:1:pos:R:3:forces:R:3 energy=-1.0457387563602638 pbc="F F F"
Pt       0.00000000       0.00000000       0.00000000       0.00000000       0.00000000       0.11490759
Pt       0.00000000       0.00000000       5.00060606       0.00000000       0.00000000      -0.11490759
2
Properties=species:S:1:pos:R:3:forces:R:3 energy=-1.0397063545845553 pbc="F F F"
Pt       0.00000000       0.00000000       0.00000000       0.00000000       0.00000000       0.09104820
Pt       0.00000000       0.00000000       5.05939394       0.00000000       0.00000000      -0.09104820
2
Properties=species:S:1:pos:R:3:forces:R:3 energy=-1.0349448204266052 pbc="F F F"
Pt       0.00000000       0.00000000       0.00000000       0.00000000       0.00000000       0.07170480
Pt       0.00000000       0.00000000       5.11818182       0.00000000       0.00000000      -0.07170480
2
Properties=species:S:1:pos:R:3:forces:R:3 energy=-1.031189435411933 pbc="F F F"
Pt       0.00000000       0.00000000       0.00000000       0.00000000       0.00000000       0.05675909
Pt       0.00000000       0.00000000       5.17696970       0.00000000       0.00000000      -0.05675909
2
Properties=species:S:1:pos:R:3:forces:R:3 energy=-1.028193732422615 pbc="F F F"
Pt       0.00000000       0.00000000       0.00000000       0.00000000       0.00000000       0.04576996
Pt       0.00000000       0.00000000       5.23575758       0.00000000       0.00000000      -0.04576996
2
Properties=species:S:1:pos:R:3:forces:R:3 energy=-1.025744137849053 pbc="F F F"
Pt       0.00000000       0.00000000       0.00000000       0.00000000       0.00000000       0.03804278
Pt       0.00000000       0.00000000       5.29454545       0.00000000       0.00000000      -0.03804278
2
Properties=species:S:1:pos:R:3:forces:R:3 energy=-1.0236730612291576 pbc="F F F"
Pt       0.00000000       0.00000000       0.00000000       0.00000000       0.00000000       0.03274622
Pt       0.00000000       0.00000000       5.35333333       0.00000000       0.00000000      -0.03274622
2
Properties=species:S:1:pos:R:3:forces:R:3 energy=-1.021862944404413 pbc="F F F"
Pt       0.00000000       0.00000000       0.00000000       0.00000000       0.00000000       0.02903791
Pt       0.00000000       0.00000000       5.41212121       0.00000000       0.00000000      -0.02903791
2
Properties=species:S:1:pos:R:3:forces:R:3 energy=-1.0202424737491012 pbc="F F F"
Pt       0.00000000       0.00000000       0.00000000       0.00000000       0.00000000       0.02617988
Pt       0.00000000       0.00000000       5.47090909       0.00000000       0.00000000      -0.02617988
2
Properties=species:S:1:pos:R:3:forces:R:3 energy=-1.0187787772975447 pbc="F F F"
Pt       0.00000000       0.00000000       0.00000000       0.00000000       0.00000000       0.02362873
Pt       0.00000000       0.00000000       5.52969697       0.00000000       0.00000000      -0.02362873
2
Properties=species:S:1:pos:R:3:forces:R:3 energy=-1.017464689149014 pbc="F F F"
Pt       0.00000000       0.00000000       0.00000000       0.00000000       0.00000000       0.02106501
Pt       0.00000000       0.00000000       5.58848485       0.00000000       0.00000000      -0.02106501
2
Properties=species:S:1:pos:R:3:forces:R:3 energy=-1.0163048249475597 pbc="F F F"
Pt       0.00000000       0.00000000       0.00000000       0.00000000       0.00000000       0.01838746
Pt       0.00000000       0.00000000       5.64727273       0.00000000       0.00000000      -0.01838746
2
Properties=species:S:1:pos:R:3:forces:R:3 energy=-1.0153040486752376 pbc="F F F"
Pt       0.00000000       0.00000000       0.00000000       0.00000000       0.00000000       0.01565363
Pt       0.00000000       0.00000000       5.70606061       0.00000000       0.00000000      -0.01565363
2
Properties=species:S:1:pos:R:3:forces:R:3 energy=-1.0144616702027403 pbc="F F F"
Pt       0.00000000       0.00000000       0.00000000       0.00000000       0.00000000       0.01301723
Pt       0.00000000       0.00000000       5.76484848       0.00000000       0.00000000      -0.01301723
2
Properties=species:S:1:pos:R:3:forces:R:3 energy=-1.0137675248460882 pbc="F F F"
Pt       0.00000000       0.00000000       0.00000000       0.00000000       0.00000000       0.01066187
Pt       0.00000000       0.00000000       5.82363636       0.00000000       0.00000000      -0.01066187
2
Properties=species:S:1:pos:R:3:forces:R:3 energy=-1.013199833143105 pbc="F F F"
Pt       0.00000000       0.00000000       0.00000000       0.00000000       0.00000000       0.00874926
Pt       0.00000000       0.00000000       5.88242424       0.00000000       0.00000000      -0.00874926
2
Properties=species:S:1:pos:R:3:forces:R:3 energy=-1.0127279925602763 pbc="F F F"
Pt       0.00000000       0.00000000       0.00000000       0.00000000       0.00000000       0.00739570
Pt       0.00000000       0.00000000       5.94121212       0.00000000       0.00000000      -0.00739570
2
Properties=species:S:1:pos:R:3:forces:R:3 energy=-1.012317802110647 pbc="F F F"
Pt       0.00000000       0.00000000       0.00000000       0.00000000       0.00000000       0.00667370
Pt       0.00000000       0.00000000       6.00000000       0.00000000       0.00000000      -0.00667370
