2
Properties=species:S:1:pos:R:3:forces:R:3 energy=9388.042441763573 pbc="F F F"
Sb       0.00000000       0.00000000       0.00000000       0.00000000       0.00000000 -156614.20312500
Sb       0.00000000       0.00000000       0.18000000       0.00000000       0.00000000  156614.20312500
2
Properties=species:S:1:pos:R:3:forces:R:3 energy=3830.485068716698 pbc="F F F"
Sb       0.00000000       0.00000000       0.00000000       0.00000000       0.00000000  -53752.28515625
Sb       0.00000000       0.00000000       0.23878788       0.00000000       0.00000000   53752.28515625
2
Properties=species:S:1:pos:R:3:forces:R:3 energy=1773.0921243807604 pbc="F F F"
Sb       0.00000000       0.00000000       0.00000000       0.00000000       0.00000000  -21736.73046875
Sb       0.00000000       0.00000000       0.29757576       0.00000000       0.00000000   21736.73046875
2
Properties=species:S:1:pos:R:3:forces:R:3 energy=900.9343485081899 pbc="F F F"
Sb       0.00000000       0.00000000       0.00000000       0.00000000       0.00000000   -9727.27832031
Sb       0.00000000       0.00000000       0.35636364       0.00000000       0.00000000    9727.27832031
2
Properties=species:S:1:pos:R:3:forces:R:3 energy=497.9776529515493 pbc="F F F"
Sb       0.00000000       0.00000000       0.00000000       0.00000000       0.00000000   -4662.78857422
Sb       0.00000000       0.00000000       0.41515152       0.00000000       0.00000000    4662.78857422
2
Properties=species:S:1:pos:R:3:forces:R:3 energy=300.2336344158687 pbc="F F F"
Sb       0.00000000       0.00000000       0.00000000       0.00000000       0.00000000   -2350.69921875
Sb       0.00000000       0.00000000       0.47393939       0.00000000       0.00000000    2350.69921875
2
Properties=species:S:1:pos:R:3:forces:R:3 energy=198.78845927664852 pbc="F F F"
Sb       0.00000000       0.00000000       0.00000000       0.00000000       0.00000000   -1229.43762207
Sb       0.00000000       0.00000000       0.53272727       0.00000000       0.00000000    1229.43762207
2
Properties=species:S:1:pos:R:3:forces:R:3 energy=145.12367966424773 pbc="F F F"
Sb       0.00000000       0.00000000       0.00000000       0.00000000       0.00000000    -657.83795166
Sb       0.00000000       0.00000000       0.59151515       0.00000000       0.00000000     657.83795166
2
Properties=species:S:1:pos:R:3:forces:R:3 energy=116.25607262357624 pbc="F F F"
Sb       0.00000000       0.00000000       0.00000000       0.00000000       0.00000000    -355.60125732
Sb       0.00000000       0.00000000       0.65030303       0.00000000       0.00000000     355.60125732
2
Properties=species:S:1:pos:R:3:forces:R:3 energy=100.57550787625368 pbc="F F F"
Sb       0.00000000       0.00000000       0.00000000       0.00000000       0.00000000    -195.07147217
Sb       0.00000000       0.00000000       0.70909091       0.00000000       0.00000000     195.07147217
2
Properties=species:S:1:pos:R:3:forces:R:3 energy=91.83346553115476 pbc="F F F"
Sb       0.00000000       0.00000000       0.00000000       0.00000000       0.00000000    -110.31816101
Sb       0.00000000       0.00000000       0.76787879       0.00000000       0.00000000     110.31816101
2
Properties=species:S:1:pos:R:3:forces:R:3 energy=87.50914025473531 pbc="F F F"
Sb       0.00000000       0.00000000       0.00000000       0.00000000       0.00000000     -30.50617027
Sb       0.00000000       0.00000000       0.82666667       0.00000000       0.00000000      30.50617027
2
Properties=species:S:1:pos:R:3:forces:R:3 energy=87.62423008305609 pbc="F F F"
Sb       0.00000000       0.00000000       0.00000000       0.00000000       0.00000000     -12.77425480
Sb       0.00000000       0.00000000       0.88545455       0.00000000       0.00000000      12.77425480
2
Properties=species:S:1:pos:R:3:forces:R:3 energy=86.73108033634553 pbc="F F F"
Sb       0.00000000       0.00000000       0.00000000       0.00000000       0.00000000     -39.76080322
Sb       0.00000000       0.00000000       0.94424242       0.00000000       0.00000000      39.76080322
2
Properties=species:S:1:pos:R:3:forces:R:3 energy=83.12916768248827 pbc="F F F"
Sb       0.00000000       0.00000000       0.00000000       0.00000000       0.00000000     -74.15649414
Sb       0.00000000       0.00000000       1.00303030       0.00000000       0.00000000      74.15649414
2
Properties=species:S:1:pos:R:3:forces:R:3 energy=78.67908025857123 pbc="F F F"
Sb       0.00000000       0.00000000       0.00000000       0.00000000       0.00000000     -82.76723480
Sb       0.00000000       0.00000000       1.06181818       0.00000000       0.00000000      82.76723480
2
Properties=species:S:1:pos:R:3:forces:R:3 energy=72.41743922803651 pbc="F F F"
Sb       0.00000000       0.00000000       0.00000000       0.00000000       0.00000000    -157.66529846
Sb       0.00000000       0.00000000       1.12060606       0.00000000       0.00000000     157.66529846
2
Properties=species:S:1:pos:R:3:forces:R:3 energy=61.93686172083088 pbc="F F F"
Sb       0.00000000       0.00000000       0.00000000       0.00000000       0.00000000    -179.32127380
Sb       0.00000000       0.00000000       1.17939394       0.00000000       0.00000000     179.32127380
2
Properties=species:S:1:pos:R:3:forces:R:3 energy=51.72077299137679 pbc="F F F"
Sb       0.00000000       0.00000000       0.00000000       0.00000000       0.00000000    -167.35908508
Sb       0.00000000       0.00000000       1.23818182       0.00000000       0.00000000     167.35908508
2
Properties=species:S:1:pos:R:3:forces:R:3 energy=42.24451495059083 pbc="F F F"
Sb       0.00000000       0.00000000       0.00000000       0.00000000       0.00000000    -155.53520203
Sb       0.00000000       0.00000000       1.29696970       0.00000000       0.00000000     155.53520203
2
Properties=species:S:1:pos:R:3:forces:R:3 energy=33.468605627493616 pbc="F F F"
Sb       0.00000000       0.00000000       0.00000000       0.00000000       0.00000000    -141.53486633
Sb       0.00000000       0.00000000       1.35575758       0.00000000       0.00000000     141.53486633
2
Properties=species:S:1:pos:R:3:forces:R:3 energy=25.845058208894606 pbc="F F F"
Sb       0.00000000       0.00000000       0.00000000       0.00000000       0.00000000    -116.17692566
Sb       0.00000000       0.00000000       1.41454545       0.00000000       0.00000000     116.17692566
2
Properties=species:S:1:pos:R:3:forces:R:3 energy=19.85426535992475 pbc="F F F"
Sb       0.00000000       0.00000000       0.00000000       0.00000000       0.00000000     -88.35169983
Sb       0.00000000       0.00000000       1.47333333       0.00000000       0.00000000      88.35169983
2
Properties=species:S:1:pos:R:3:forces:R:3 energy=15.314700151903963 pbc="F F F"
Sb       0.00000000       0.00000000       0.00000000       0.00000000       0.00000000     -67.47722626
Sb       0.00000000       0.00000000       1.53212121       0.00000000       0.00000000      67.47722626
2
Properties=species:S:1:pos:R:3:forces:R:3 energy=11.76663556997247 pbc="F F F"
Sb       0.00000000       0.00000000       0.00000000       0.00000000       0.00000000     -54.37065887
Sb       0.00000000       0.00000000       1.59090909       0.00000000       0.00000000      54.37065887
2
Properties=species:S:1:pos:R:3:forces:R:3 energy=8.814727184049302 pbc="F F F"
Sb       0.00000000       0.00000000       0.00000000       0.00000000       0.00000000     -46.72830200
Sb       0.00000000       0.00000000       1.64969697       0.00000000       0.00000000      46.72830200
2
Properties=species:S:1:pos:R:3:forces:R:3 energy=6.221225257510911 pbc="F F F"
Sb       0.00000000       0.00000000       0.00000000       0.00000000       0.00000000     -41.71946335
Sb       0.00000000       0.00000000       1.70848485       0.00000000       0.00000000      41.71946335
2
Properties=species:S:1:pos:R:3:forces:R:3 energy=3.9039999894569166 pbc="F F F"
Sb       0.00000000       0.00000000       0.00000000       0.00000000       0.00000000     -37.04600906
Sb       0.00000000       0.00000000       1.76727273       0.00000000       0.00000000      37.04600906
2
Properties=species:S:1:pos:R:3:forces:R:3 energy=1.8770331466911614 pbc="F F F"
Sb       0.00000000       0.00000000       0.00000000       0.00000000       0.00000000     -31.83224678
Sb       0.00000000       0.00000000       1.82606061       0.00000000       0.00000000      31.83224678
2
Properties=species:S:1:pos:R:3:forces:R:3 energy=0.16379012885920816 pbc="F F F"
Sb       0.00000000       0.00000000       0.00000000       0.00000000       0.00000000     -26.49740410
Sb       0.00000000       0.00000000       1.88484848       0.00000000       0.00000000      26.49740410
2
Properties=species:S:1:pos:R:3:forces:R:3 energy=-1.249789844586852 pbc="F F F"
Sb       0.00000000       0.00000000       0.00000000       0.00000000       0.00000000     -21.72570992
Sb       0.00000000       0.00000000       1.94363636       0.00000000       0.00000000      21.72570992
2
Properties=species:S:1:pos:R:3:forces:R:3 energy=-2.407083722092902 pbc="F F F"
Sb       0.00000000       0.00000000       0.00000000       0.00000000       0.00000000     -17.77838707
Sb       0.00000000       0.00000000       2.00242424       0.00000000       0.00000000      17.77838707
2
Properties=species:S:1:pos:R:3:forces:R:3 energy=-3.3531477521987743 pbc="F F F"
Sb       0.00000000       0.00000000       0.00000000       0.00000000       0.00000000     -14.49450016
Sb       0.00000000       0.00000000       2.06121212       0.00000000       0.00000000      14.49450016
2
Properties=species:S:1:pos:R:3:forces:R:3 energy=-4.119128598785293 pbc="F F F"
Sb       0.00000000       0.00000000       0.00000000       0.00000000       0.00000000     -11.61625957
Sb       0.00000000       0.00000000       2.12000000       0.00000000       0.00000000      11.61625957
2
Properties=species:S:1:pos:R:3:forces:R:3 energy=-4.724078891050538 pbc="F F F"
Sb       0.00000000       0.00000000       0.00000000       0.00000000       0.00000000      -9.00463009
Sb       0.00000000       0.00000000       2.17878788       0.00000000       0.00000000       9.00463009
2
Properties=species:S:1:pos:R:3:forces:R:3 energy=-5.182695344416754 pbc="F F F"
Sb       0.00000000       0.00000000       0.00000000       0.00000000       0.00000000      -6.64123201
Sb       0.00000000       0.00000000       2.23757576       0.00000000       0.00000000       6.64123201
2
Properties=species:S:1:pos:R:3:forces:R:3 energy=-5.510382205614299 pbc="F F F"
Sb       0.00000000       0.00000000       0.00000000       0.00000000       0.00000000      -4.55617857
Sb       0.00000000       0.00000000       2.29636364       0.00000000       0.00000000       4.55617857
2
Properties=species:S:1:pos:R:3:forces:R:3 energy=-5.724415218520457 pbc="F F F"
Sb       0.00000000       0.00000000       0.00000000       0.00000000       0.00000000      -2.77786112
Sb       0.00000000       0.00000000       2.35515152       0.00000000       0.00000000       2.77786112
2
Properties=species:S:1:pos:R:3:forces:R:3 energy=-5.843172555515346 pbc="F F F"
Sb       0.00000000       0.00000000       0.00000000       0.00000000       0.00000000      -1.31429577
Sb       0.00000000       0.00000000       2.41393939       0.00000000       0.00000000       1.31429577
2
Properties=species:S:1:pos:R:3:forces:R:3 energy=-5.8849069364569635 pbc="F F F"
Sb       0.00000000       0.00000000       0.00000000       0.00000000       0.00000000      -0.15454967
Sb       0.00000000       0.00000000       2.47272727       0.00000000       0.00000000       0.15454967
2
Properties=species:S:1:pos:R:3:forces:R:3 energy=-5.866838665399357 pbc="F F F"
Sb       0.00000000       0.00000000       0.00000000       0.00000000       0.00000000       0.72506112
Sb       0.00000000       0.00000000       2.53151515       0.00000000       0.00000000      -0.72506112
2
Properties=species:S:1:pos:R:3:forces:R:3 energy=-5.804488147270155 pbc="F F F"
Sb       0.00000000       0.00000000       0.00000000       0.00000000       0.00000000       1.35850692
Sb       0.00000000       0.00000000       2.59030303       0.00000000       0.00000000      -1.35850692
2
Properties=species:S:1:pos:R:3:forces:R:3 energy=-5.711083122262127 pbc="F F F"
Sb       0.00000000       0.00000000       0.00000000       0.00000000       0.00000000       1.78945768
Sb       0.00000000       0.00000000       2.64909091       0.00000000       0.00000000      -1.78945768
2
Properties=species:S:1:pos:R:3:forces:R:3 energy=-5.597089063595722 pbc="F F F"
Sb       0.00000000       0.00000000       0.00000000       0.00000000       0.00000000       2.06733274
Sb       0.00000000       0.00000000       2.70787879       0.00000000       0.00000000      -2.06733274
2
Properties=species:S:1:pos:R:3:forces:R:3 energy=-5.47007896296102 pbc="F F F"
Sb       0.00000000       0.00000000       0.00000000       0.00000000       0.00000000       2.23955965
Sb       0.00000000       0.00000000       2.76666667       0.00000000       0.00000000      -2.23955965
2
Properties=species:S:1:pos:R:3:forces:R:3 energy=-5.335090068068508 pbc="F F F"
Sb       0.00000000       0.00000000       0.00000000       0.00000000       0.00000000       2.34399080
Sb       0.00000000       0.00000000       2.82545455       0.00000000       0.00000000      -2.34399080
2
Properties=species:S:1:pos:R:3:forces:R:3 energy=-5.195323936618122 pbc="F F F"
Sb       0.00000000       0.00000000       0.00000000       0.00000000       0.00000000       2.40503097
Sb       0.00000000       0.00000000       2.88424242       0.00000000       0.00000000      -2.40503097
2
Properties=species:S:1:pos:R:3:forces:R:3 energy=-5.052930667033901 pbc="F F F"
Sb       0.00000000       0.00000000       0.00000000       0.00000000       0.00000000       2.43437219
Sb       0.00000000       0.00000000       2.94303030       0.00000000       0.00000000      -2.43437219
2
Properties=species:S:1:pos:R:3:forces:R:3 energy=-4.909660948607322 pbc="F F F"
Sb       0.00000000       0.00000000       0.00000000       0.00000000       0.00000000       2.43500590
Sb       0.00000000       0.00000000       3.00181818       0.00000000       0.00000000      -2.43500590
2
Properties=species:S:1:pos:R:3:forces:R:3 energy=-4.767211503684076 pbc="F F F"
Sb       0.00000000       0.00000000       0.00000000       0.00000000       0.00000000       2.40626717
Sb       0.00000000       0.00000000       3.06060606       0.00000000       0.00000000      -2.40626717
2
Properties=species:S:1:pos:R:3:forces:R:3 energy=-4.627325980416929 pbc="F F F"
Sb       0.00000000       0.00000000       0.00000000       0.00000000       0.00000000       2.34788179
Sb       0.00000000       0.00000000       3.11939394       0.00000000       0.00000000      -2.34788179
2
Properties=species:S:1:pos:R:3:forces:R:3 energy=-4.491697719007291 pbc="F F F"
Sb       0.00000000       0.00000000       0.00000000       0.00000000       0.00000000       2.26195455
Sb       0.00000000       0.00000000       3.17818182       0.00000000       0.00000000      -2.26195455
2
Properties=species:S:1:pos:R:3:forces:R:3 energy=-4.361826176682811 pbc="F F F"
Sb       0.00000000       0.00000000       0.00000000       0.00000000       0.00000000       2.15304947
Sb       0.00000000       0.00000000       3.23696970       0.00000000       0.00000000      -2.15304947
2
Properties=species:S:1:pos:R:3:forces:R:3 energy=-4.238882906695903 pbc="F F F"
Sb       0.00000000       0.00000000       0.00000000       0.00000000       0.00000000       2.02723098
Sb       0.00000000       0.00000000       3.29575758       0.00000000       0.00000000      -2.02723098
2
Properties=species:S:1:pos:R:3:forces:R:3 energy=-4.123677168577175 pbc="F F F"
Sb       0.00000000       0.00000000       0.00000000       0.00000000       0.00000000       1.89090192
Sb       0.00000000       0.00000000       3.35454545       0.00000000       0.00000000      -1.89090192
2
Properties=species:S:1:pos:R:3:forces:R:3 energy=-4.016651823502521 pbc="F F F"
Sb       0.00000000       0.00000000       0.00000000       0.00000000       0.00000000       1.74981940
Sb       0.00000000       0.00000000       3.41333333       0.00000000       0.00000000      -1.74981940
2
Properties=species:S:1:pos:R:3:forces:R:3 energy=-3.9179388028227637 pbc="F F F"
Sb       0.00000000       0.00000000       0.00000000       0.00000000       0.00000000       1.60884845
Sb       0.00000000       0.00000000       3.47212121       0.00000000       0.00000000      -1.60884845
2
Properties=species:S:1:pos:R:3:forces:R:3 energy=-3.8274019638948356 pbc="F F F"
Sb       0.00000000       0.00000000       0.00000000       0.00000000       0.00000000       1.47241950
Sb       0.00000000       0.00000000       3.53090909       0.00000000       0.00000000      -1.47241950
2
Properties=species:S:1:pos:R:3:forces:R:3 energy=-3.7446477298664487 pbc="F F F"
Sb       0.00000000       0.00000000       0.00000000       0.00000000       0.00000000       1.34466612
Sb       0.00000000       0.00000000       3.58969697       0.00000000       0.00000000      -1.34466612
2
Properties=species:S:1:pos:R:3:forces:R:3 energy=-3.6690653484636826 pbc="F F F"
Sb       0.00000000       0.00000000       0.00000000       0.00000000       0.00000000       1.22888362
Sb       0.00000000       0.00000000       3.64848485       0.00000000       0.00000000      -1.22888362
2
Properties=species:S:1:pos:R:3:forces:R:3 energy=-3.599891265773921 pbc="F F F"
Sb       0.00000000       0.00000000       0.00000000       0.00000000       0.00000000       1.12679863
Sb       0.00000000       0.00000000       3.70727273       0.00000000       0.00000000      -1.12679863
2
Properties=species:S:1:pos:R:3:forces:R:3 energy=-3.5363132197778886 pbc="F F F"
Sb       0.00000000       0.00000000       0.00000000       0.00000000       0.00000000       1.03828633
Sb       0.00000000       0.00000000       3.76606061       0.00000000       0.00000000      -1.03828633
2
Properties=species:S:1:pos:R:3:forces:R:3 energy=-3.4775811603458924 pbc="F F F"
Sb       0.00000000       0.00000000       0.00000000       0.00000000       0.00000000       0.96161532
Sb       0.00000000       0.00000000       3.82484848       0.00000000       0.00000000      -0.96161532
2
Properties=species:S:1:pos:R:3:forces:R:3 energy=-3.423072451391668 pbc="F F F"
Sb       0.00000000       0.00000000       0.00000000       0.00000000       0.00000000       0.89405310
Sb       0.00000000       0.00000000       3.88363636       0.00000000       0.00000000      -0.89405310
2
Properties=species:S:1:pos:R:3:forces:R:3 energy=-3.3723428162607223 pbc="F F F"
Sb       0.00000000       0.00000000       0.00000000       0.00000000       0.00000000       0.83259022
Sb       0.00000000       0.00000000       3.94242424       0.00000000       0.00000000      -0.83259022
2
Properties=species:S:1:pos:R:3:forces:R:3 energy=-3.325114786604654 pbc="F F F"
Sb       0.00000000       0.00000000       0.00000000       0.00000000       0.00000000       0.77452761
Sb       0.00000000       0.00000000       4.00121212       0.00000000       0.00000000      -0.77452761
2
Properties=species:S:1:pos:R:3:forces:R:3 energy=-3.2812506485441038 pbc="F F F"
Sb       0.00000000       0.00000000       0.00000000       0.00000000       0.00000000       0.71786177
Sb       0.00000000       0.00000000       4.06000000       0.00000000       0.00000000      -0.71786177
2
Properties=species:S:1:pos:R:3:forces:R:3 energy=-3.240707266683787 pbc="F F F"
Sb       0.00000000       0.00000000       0.00000000       0.00000000       0.00000000       0.66146308
Sb       0.00000000       0.00000000       4.11878788       0.00000000       0.00000000      -0.66146308
2
Properties=species:S:1:pos:R:3:forces:R:3 energy=-3.20347813806239 pbc="F F F"
Sb       0.00000000       0.00000000       0.00000000       0.00000000       0.00000000       0.60509384
Sb       0.00000000       0.00000000       4.17757576       0.00000000       0.00000000      -0.60509384
2
Properties=species:S:1:pos:R:3:forces:R:3 energy=-3.1695508681142903 pbc="F F F"
Sb       0.00000000       0.00000000       0.00000000       0.00000000       0.00000000       0.54930937
Sb       0.00000000       0.00000000       4.23636364       0.00000000       0.00000000      -0.54930937
2
Properties=species:S:1:pos:R:3:forces:R:3 energy=-3.138858816047509 pbc="F F F"
Sb       0.00000000       0.00000000       0.00000000       0.00000000       0.00000000       0.49524170
Sb       0.00000000       0.00000000       4.29515152       0.00000000       0.00000000      -0.49524170
2
Properties=species:S:1:pos:R:3:forces:R:3 energy=-3.111260778579334 pbc="F F F"
Sb       0.00000000       0.00000000       0.00000000       0.00000000       0.00000000       0.44433713
Sb       0.00000000       0.00000000       4.35393939       0.00000000       0.00000000      -0.44433713
2
Properties=species:S:1:pos:R:3:forces:R:3 energy=-3.0865261161175734 pbc="F F F"
Sb       0.00000000       0.00000000       0.00000000       0.00000000       0.00000000       0.39802095
Sb       0.00000000       0.00000000       4.41272727       0.00000000       0.00000000      -0.39802095
2
Properties=species:S:1:pos:R:3:forces:R:3 energy=-3.0643499608644618 pbc="F F F"
Sb       0.00000000       0.00000000       0.00000000       0.00000000       0.00000000       0.35744295
Sb       0.00000000       0.00000000       4.47151515       0.00000000       0.00000000      -0.35744295
2
Properties=species:S:1:pos:R:3:forces:R:3 energy=-3.0443728788458415 pbc="F F F"
Sb       0.00000000       0.00000000       0.00000000       0.00000000       0.00000000       0.32328114
Sb       0.00000000       0.00000000       4.53030303       0.00000000       0.00000000      -0.32328114
2
Properties=species:S:1:pos:R:3:forces:R:3 energy=-3.026211298790267 pbc="F F F"
Sb       0.00000000       0.00000000       0.00000000       0.00000000       0.00000000       0.29567274
Sb       0.00000000       0.00000000       4.58909091       0.00000000       0.00000000      -0.29567274
2
Properties=species:S:1:pos:R:3:forces:R:3 energy=-3.009488223776199 pbc="F F F"
Sb       0.00000000       0.00000000       0.00000000       0.00000000       0.00000000       0.27423504
Sb       0.00000000       0.00000000       4.64787879       0.00000000       0.00000000      -0.27423504
2
Properties=species:S:1:pos:R:3:forces:R:3 energy=-2.9938630945749307 pbc="F F F"
Sb       0.00000000       0.00000000       0.00000000       0.00000000       0.00000000       0.25813538
Sb       0.00000000       0.00000000       4.70666667       0.00000000       0.00000000      -0.25813538
2
Properties=species:S:1:pos:R:3:forces:R:3 energy=-2.9790560956743675 pbc="F F F"
Sb       0.00000000       0.00000000       0.00000000       0.00000000       0.00000000       0.24620700
Sb       0.00000000       0.00000000       4.76545455       0.00000000       0.00000000      -0.24620700
2
Properties=species:S:1:pos:R:3:forces:R:3 energy=-2.964859288092336 pbc="F F F"
Sb       0.00000000       0.00000000       0.00000000       0.00000000       0.00000000       0.23709044
Sb       0.00000000       0.00000000       4.82424242       0.00000000       0.00000000      -0.23709044
2
Properties=species:S:1:pos:R:3:forces:R:3 energy=-2.951152294317649 pbc="F F F"
Sb       0.00000000       0.00000000       0.00000000       0.00000000       0.00000000       0.22940361
Sb       0.00000000       0.00000000       4.88303030       0.00000000       0.00000000      -0.22940361
2
Properties=species:S:1:pos:R:3:forces:R:3 energy=-2.937884085047342 pbc="F F F"
Sb       0.00000000       0.00000000       0.00000000       0.00000000       0.00000000       0.22190496
Sb       0.00000000       0.00000000       4.94181818       0.00000000       0.00000000      -0.22190496
2
Properties=species:S:1:pos:R:3:forces:R:3 energy=-2.9250770766520278 pbc="F F F"
Sb       0.00000000       0.00000000       0.00000000       0.00000000       0.00000000       0.21360733
Sb       0.00000000       0.00000000       5.00060606       0.00000000       0.00000000      -0.21360733
2
Properties=species:S:1:pos:R:3:forces:R:3 energy=-2.9127973161822185 pbc="F F F"
Sb       0.00000000       0.00000000       0.00000000       0.00000000       0.00000000       0.20383760
Sb       0.00000000       0.00000000       5.05939394       0.00000000       0.00000000      -0.20383760
2
Properties=species:S:1:pos:R:3:forces:R:3 energy=-2.9011475228800236 pbc="F F F"
Sb       0.00000000       0.00000000       0.00000000       0.00000000       0.00000000       0.19219586
Sb       0.00000000       0.00000000       5.11818182       0.00000000       0.00000000      -0.19219586
2
Properties=species:S:1:pos:R:3:forces:R:3 energy=-2.890239723895529 pbc="F F F"
Sb       0.00000000       0.00000000       0.00000000       0.00000000       0.00000000       0.17855468
Sb       0.00000000       0.00000000       5.17696970       0.00000000       0.00000000      -0.17855468
2
Properties=species:S:1:pos:R:3:forces:R:3 energy=-2.8801914776033963 pbc="F F F"
Sb       0.00000000       0.00000000       0.00000000       0.00000000       0.00000000       0.16301259
Sb       0.00000000       0.00000000       5.23575758       0.00000000       0.00000000      -0.16301259
2
Properties=species:S:1:pos:R:3:forces:R:3 energy=-2.8711046353423915 pbc="F F F"
Sb       0.00000000       0.00000000       0.00000000       0.00000000       0.00000000       0.14590333
Sb       0.00000000       0.00000000       5.29454545       0.00000000       0.00000000      -0.14590333
2
Properties=species:S:1:pos:R:3:forces:R:3 energy=-2.8630565991235106 pbc="F F F"
Sb       0.00000000       0.00000000       0.00000000       0.00000000       0.00000000       0.12777038
Sb       0.00000000       0.00000000       5.35333333       0.00000000       0.00000000      -0.12777038
2
Properties=species:S:1:pos:R:3:forces:R:3 energy=-2.8560884482183573 pbc="F F F"
Sb       0.00000000       0.00000000       0.00000000       0.00000000       0.00000000       0.10931815
Sb       0.00000000       0.00000000       5.41212121       0.00000000       0.00000000      -0.10931815
2
Properties=species:S:1:pos:R:3:forces:R:3 energy=-2.850194904987977 pbc="F F F"
Sb       0.00000000       0.00000000       0.00000000       0.00000000       0.00000000       0.09129997
Sb       0.00000000       0.00000000       5.47090909       0.00000000       0.00000000      -0.09129997
2
Properties=species:S:1:pos:R:3:forces:R:3 energy=-2.8453308735548006 pbc="F F F"
Sb       0.00000000       0.00000000       0.00000000       0.00000000       0.00000000       0.07441501
Sb       0.00000000       0.00000000       5.52969697       0.00000000       0.00000000      -0.07441501
2
Properties=species:S:1:pos:R:3:forces:R:3 energy=-2.841412899616475 pbc="F F F"
Sb       0.00000000       0.00000000       0.00000000       0.00000000       0.00000000       0.05918743
Sb       0.00000000       0.00000000       5.58848485       0.00000000       0.00000000      -0.05918743
2
Properties=species:S:1:pos:R:3:forces:R:3 energy=-2.838334448241857 pbc="F F F"
Sb       0.00000000       0.00000000       0.00000000       0.00000000       0.00000000       0.04593888
Sb       0.00000000       0.00000000       5.64727273       0.00000000       0.00000000      -0.04593888
2
Properties=species:S:1:pos:R:3:forces:R:3 energy=-2.83597165838709 pbc="F F F"
Sb       0.00000000       0.00000000       0.00000000       0.00000000       0.00000000       0.03477088
Sb       0.00000000       0.00000000       5.70606061       0.00000000       0.00000000      -0.03477088
2
Properties=species:S:1:pos:R:3:forces:R:3 energy=-2.834203194202157 pbc="F F F"
Sb       0.00000000       0.00000000       0.00000000       0.00000000       0.00000000       0.02565826
Sb       0.00000000       0.00000000       5.76484848       0.00000000       0.00000000      -0.02565826
2
Properties=species:S:1:pos:R:3:forces:R:3 energy=-2.832914784487349 pbc="F F F"
Sb       0.00000000       0.00000000       0.00000000       0.00000000       0.00000000       0.01851337
Sb       0.00000000       0.00000000       5.82363636       0.00000000       0.00000000      -0.01851337
2
Properties=species:S:1:pos:R:3:forces:R:3 energy=-2.831991360423843 pbc="F F F"
Sb       0.00000000       0.00000000       0.00000000       0.00000000       0.00000000       0.01325840
Sb       0.00000000       0.00000000       5.88242424       0.00000000       0.00000000      -0.01325840
2
Properties=species:S:1:pos:R:3:forces:R:3 energy=-2.831319986288741 pbc="F F F"
Sb       0.00000000       0.00000000       0.00000000       0.00000000       0.00000000       0.00986870
Sb       0.00000000       0.00000000       5.94121212       0.00000000       0.00000000      -0.00986870
2
Properties=species:S:1:pos:R:3:forces:R:3 energy=-2.830792932762063 pbc="F F F"
Sb       0.00000000       0.00000000       0.00000000       0.00000000       0.00000000       0.00839876
Sb       0.00000000       0.00000000       6.00000000       0.00000000       0.00000000      -0.00839876
