2
Properties=species:S:1:pos:R:3:forces:R:3 energy=13037.355402461915 pbc="F F F"
Tb       0.00000000       0.00000000       0.00000000       0.00000000       0.00000000 -225360.98437500
Tb       0.00000000       0.00000000       0.18000000       0.00000000       0.00000000  225360.98437500
2
Properties=species:S:1:pos:R:3:forces:R:3 energy=5120.879328243166 pbc="F F F"
Tb       0.00000000       0.00000000       0.00000000       0.00000000       0.00000000  -75472.92187500
Tb       0.00000000       0.00000000       0.23878788       0.00000000       0.00000000   75472.92187500
2
Properties=species:S:1:pos:R:3:forces:R:3 energy=2262.734308711916 pbc="F F F"
Tb       0.00000000       0.00000000       0.00000000       0.00000000       0.00000000  -29756.40429688
Tb       0.00000000       0.00000000       0.29757576       0.00000000       0.00000000   29756.40429688
2
Properties=species:S:1:pos:R:3:forces:R:3 energy=1081.994562618166 pbc="F F F"
Tb       0.00000000       0.00000000       0.00000000       0.00000000       0.00000000  -12981.17285156
Tb       0.00000000       0.00000000       0.35636364       0.00000000       0.00000000   12981.17285156
2
Properties=species:S:1:pos:R:3:forces:R:3 energy=549.7351632041035 pbc="F F F"
Tb       0.00000000       0.00000000       0.00000000       0.00000000       0.00000000   -6083.91992188
Tb       0.00000000       0.00000000       0.41515152       0.00000000       0.00000000    6083.91992188
2
Properties=species:S:1:pos:R:3:forces:R:3 energy=293.68929528418164 pbc="F F F"
Tb       0.00000000       0.00000000       0.00000000       0.00000000       0.00000000   -3019.84765625
Tb       0.00000000       0.00000000       0.47393939       0.00000000       0.00000000    3019.84765625
2
Properties=species:S:1:pos:R:3:forces:R:3 energy=163.70934535835232 pbc="F F F"
Tb       0.00000000       0.00000000       0.00000000       0.00000000       0.00000000   -1574.81018066
Tb       0.00000000       0.00000000       0.53272727       0.00000000       0.00000000    1574.81018066
2
Properties=species:S:1:pos:R:3:forces:R:3 energy=94.56779722695663 pbc="F F F"
Tb       0.00000000       0.00000000       0.00000000       0.00000000       0.00000000    -857.50720215
Tb       0.00000000       0.00000000       0.59151515       0.00000000       0.00000000     857.50720215
2
Properties=species:S:1:pos:R:3:forces:R:3 energy=56.2671037530076 pbc="F F F"
Tb       0.00000000       0.00000000       0.00000000       0.00000000       0.00000000    -484.42132568
Tb       0.00000000       0.00000000       0.65030303       0.00000000       0.00000000     484.42132568
2
Properties=species:S:1:pos:R:3:forces:R:3 energy=34.328905714093146 pbc="F F F"
Tb       0.00000000       0.00000000       0.00000000       0.00000000       0.00000000    -281.66232300
Tb       0.00000000       0.00000000       0.70909091       0.00000000       0.00000000     281.66232300
2
Properties=species:S:1:pos:R:3:forces:R:3 energy=21.454760294979668 pbc="F F F"
Tb       0.00000000       0.00000000       0.00000000       0.00000000       0.00000000    -166.72764587
Tb       0.00000000       0.00000000       0.76787879       0.00000000       0.00000000     166.72764587
2
Properties=species:S:1:pos:R:3:forces:R:3 energy=13.81659114572859 pbc="F F F"
Tb       0.00000000       0.00000000       0.00000000       0.00000000       0.00000000     -98.81000519
Tb       0.00000000       0.00000000       0.82666667       0.00000000       0.00000000      98.81000519
2
Properties=species:S:1:pos:R:3:forces:R:3 energy=9.332511033832978 pbc="F F F"
Tb       0.00000000       0.00000000       0.00000000       0.00000000       0.00000000     -56.95293808
Tb       0.00000000       0.00000000       0.88545455       0.00000000       0.00000000      56.95293808
2
Properties=species:S:1:pos:R:3:forces:R:3 energy=6.829581135592879 pbc="F F F"
Tb       0.00000000       0.00000000       0.00000000       0.00000000       0.00000000     -30.09687805
Tb       0.00000000       0.00000000       0.94424242       0.00000000       0.00000000      30.09687805
2
Properties=species:S:1:pos:R:3:forces:R:3 energy=5.6159627603909605 pbc="F F F"
Tb       0.00000000       0.00000000       0.00000000       0.00000000       0.00000000     -12.41475201
Tb       0.00000000       0.00000000       1.00303030       0.00000000       0.00000000      12.41475201
2
Properties=species:S:1:pos:R:3:forces:R:3 energy=5.246821675896899 pbc="F F F"
Tb       0.00000000       0.00000000       0.00000000       0.00000000       0.00000000      -1.07277632
Tb       0.00000000       0.00000000       1.06181818       0.00000000       0.00000000       1.07277632
2
Properties=species:S:1:pos:R:3:forces:R:3 energy=5.386575701821288 pbc="F F F"
Tb       0.00000000       0.00000000       0.00000000       0.00000000       0.00000000       4.97277784
Tb       0.00000000       0.00000000       1.12060606       0.00000000       0.00000000      -4.97277784
2
Properties=species:S:1:pos:R:3:forces:R:3 energy=5.732023162749088 pbc="F F F"
Tb       0.00000000       0.00000000       0.00000000       0.00000000       0.00000000       5.94869041
Tb       0.00000000       0.00000000       1.17939394       0.00000000       0.00000000      -5.94869041
2
Properties=species:S:1:pos:R:3:forces:R:3 energy=5.993795028415305 pbc="F F F"
Tb       0.00000000       0.00000000       0.00000000       0.00000000       0.00000000       2.25005746
Tb       0.00000000       0.00000000       1.23818182       0.00000000       0.00000000      -2.25005746
2
Properties=species:S:1:pos:R:3:forces:R:3 energy=5.928844588946013 pbc="F F F"
Tb       0.00000000       0.00000000       0.00000000       0.00000000       0.00000000      -4.86982155
Tb       0.00000000       0.00000000       1.29696970       0.00000000       0.00000000       4.86982155
2
Properties=species:S:1:pos:R:3:forces:R:3 energy=5.39785344151113 pbc="F F F"
Tb       0.00000000       0.00000000       0.00000000       0.00000000       0.00000000     -13.15883064
Tb       0.00000000       0.00000000       1.35575758       0.00000000       0.00000000      13.15883064
2
Properties=species:S:1:pos:R:3:forces:R:3 energy=4.4157996067859955 pbc="F F F"
Tb       0.00000000       0.00000000       0.00000000       0.00000000       0.00000000     -19.70758820
Tb       0.00000000       0.00000000       1.41454545       0.00000000       0.00000000      19.70758820
2
Properties=species:S:1:pos:R:3:forces:R:3 energy=3.1710100091019537 pbc="F F F"
Tb       0.00000000       0.00000000       0.00000000       0.00000000       0.00000000     -21.69257736
Tb       0.00000000       0.00000000       1.47333333       0.00000000       0.00000000      21.69257736
2
Properties=species:S:1:pos:R:3:forces:R:3 energy=1.9843644603002841 pbc="F F F"
Tb       0.00000000       0.00000000       0.00000000       0.00000000       0.00000000     -17.71228981
Tb       0.00000000       0.00000000       1.53212121       0.00000000       0.00000000      17.71228981
2
Properties=species:S:1:pos:R:3:forces:R:3 energy=1.1740257287522486 pbc="F F F"
Tb       0.00000000       0.00000000       0.00000000       0.00000000       0.00000000      -9.47693062
Tb       0.00000000       0.00000000       1.59090909       0.00000000       0.00000000       9.47693062
2
Properties=species:S:1:pos:R:3:forces:R:3 energy=0.8655684144888762 pbc="F F F"
Tb       0.00000000       0.00000000       0.00000000       0.00000000       0.00000000      -1.43503356
Tb       0.00000000       0.00000000       1.64969697       0.00000000       0.00000000       1.43503356
2
Properties=species:S:1:pos:R:3:forces:R:3 energy=0.9297278596134404 pbc="F F F"
Tb       0.00000000       0.00000000       0.00000000       0.00000000       0.00000000       2.88001227
Tb       0.00000000       0.00000000       1.70848485       0.00000000       0.00000000      -2.88001227
2
Properties=species:S:1:pos:R:3:forces:R:3 energy=1.1252019681174066 pbc="F F F"
Tb       0.00000000       0.00000000       0.00000000       0.00000000       0.00000000       3.23031235
Tb       0.00000000       0.00000000       1.76727273       0.00000000       0.00000000      -3.23031235
2
Properties=species:S:1:pos:R:3:forces:R:3 energy=1.2659127735286433 pbc="F F F"
Tb       0.00000000       0.00000000       0.00000000       0.00000000       0.00000000       1.34910047
Tb       0.00000000       0.00000000       1.82606061       0.00000000       0.00000000      -1.34910047
2
Properties=species:S:1:pos:R:3:forces:R:3 energy=1.2750935741707734 pbc="F F F"
Tb       0.00000000       0.00000000       0.00000000       0.00000000       0.00000000      -1.00396514
Tb       0.00000000       0.00000000       1.88484848       0.00000000       0.00000000       1.00396514
2
Properties=species:S:1:pos:R:3:forces:R:3 energy=1.1593840660465233 pbc="F F F"
Tb       0.00000000       0.00000000       0.00000000       0.00000000       0.00000000      -2.79698324
Tb       0.00000000       0.00000000       1.94363636       0.00000000       0.00000000       2.79698324
2
Properties=species:S:1:pos:R:3:forces:R:3 energy=0.9626051728499493 pbc="F F F"
Tb       0.00000000       0.00000000       0.00000000       0.00000000       0.00000000      -3.76926136
Tb       0.00000000       0.00000000       2.00242424       0.00000000       0.00000000       3.76926136
2
Properties=species:S:1:pos:R:3:forces:R:3 energy=0.7289377960674831 pbc="F F F"
Tb       0.00000000       0.00000000       0.00000000       0.00000000       0.00000000      -4.09285736
Tb       0.00000000       0.00000000       2.06121212       0.00000000       0.00000000       4.09285736
2
Properties=species:S:1:pos:R:3:forces:R:3 energy=0.4893301761416178 pbc="F F F"
Tb       0.00000000       0.00000000       0.00000000       0.00000000       0.00000000      -4.00984621
Tb       0.00000000       0.00000000       2.12000000       0.00000000       0.00000000       4.00984621
2
Properties=species:S:1:pos:R:3:forces:R:3 energy=0.26131235071531833 pbc="F F F"
Tb       0.00000000       0.00000000       0.00000000       0.00000000       0.00000000      -3.72874784
Tb       0.00000000       0.00000000       2.17878788       0.00000000       0.00000000       3.72874784
2
Properties=species:S:1:pos:R:3:forces:R:3 energy=0.05191127842381135 pbc="F F F"
Tb       0.00000000       0.00000000       0.00000000       0.00000000       0.00000000      -3.39468956
Tb       0.00000000       0.00000000       2.23757576       0.00000000       0.00000000       3.39468956
2
Properties=species:S:1:pos:R:3:forces:R:3 energy=-0.13833385244445662 pbc="F F F"
Tb       0.00000000       0.00000000       0.00000000       0.00000000       0.00000000      -3.08535433
Tb       0.00000000       0.00000000       2.29636364       0.00000000       0.00000000       3.08535433
2
Properties=species:S:1:pos:R:3:forces:R:3 energy=-0.31197174074776346 pbc="F F F"
Tb       0.00000000       0.00000000       0.00000000       0.00000000       0.00000000      -2.83235049
Tb       0.00000000       0.00000000       2.35515152       0.00000000       0.00000000       2.83235049
2
Properties=species:S:1:pos:R:3:forces:R:3 energy=-0.4725887768673493 pbc="F F F"
Tb       0.00000000       0.00000000       0.00000000       0.00000000       0.00000000      -2.64211488
Tb       0.00000000       0.00000000       2.41393939       0.00000000       0.00000000       2.64211488
2
Properties=species:S:1:pos:R:3:forces:R:3 energy=-0.6237191680259005 pbc="F F F"
Tb       0.00000000       0.00000000       0.00000000       0.00000000       0.00000000      -2.50766301
Tb       0.00000000       0.00000000       2.47272727       0.00000000       0.00000000       2.50766301
2
Properties=species:S:1:pos:R:3:forces:R:3 energy=-0.7682349227621393 pbc="F F F"
Tb       0.00000000       0.00000000       0.00000000       0.00000000       0.00000000      -2.41417384
Tb       0.00000000       0.00000000       2.53151515       0.00000000       0.00000000       2.41417384
2
Properties=species:S:1:pos:R:3:forces:R:3 energy=-0.9079967845402401 pbc="F F F"
Tb       0.00000000       0.00000000       0.00000000       0.00000000       0.00000000      -2.34262562
Tb       0.00000000       0.00000000       2.59030303       0.00000000       0.00000000       2.34262562
2
Properties=species:S:1:pos:R:3:forces:R:3 energy=-1.0437192793304613 pbc="F F F"
Tb       0.00000000       0.00000000       0.00000000       0.00000000       0.00000000      -2.27369761
Tb       0.00000000       0.00000000       2.64909091       0.00000000       0.00000000       2.27369761
2
Properties=species:S:1:pos:R:3:forces:R:3 energy=-1.1750665800528295 pbc="F F F"
Tb       0.00000000       0.00000000       0.00000000       0.00000000       0.00000000      -2.19161701
Tb       0.00000000       0.00000000       2.70787879       0.00000000       0.00000000       2.19161701
2
Properties=species:S:1:pos:R:3:forces:R:3 energy=-1.3009440343106302 pbc="F F F"
Tb       0.00000000       0.00000000       0.00000000       0.00000000       0.00000000      -2.08645225
Tb       0.00000000       0.00000000       2.76666667       0.00000000       0.00000000       2.08645225
2
Properties=species:S:1:pos:R:3:forces:R:3 energy=-1.419845436058061 pbc="F F F"
Tb       0.00000000       0.00000000       0.00000000       0.00000000       0.00000000      -1.95401609
Tb       0.00000000       0.00000000       2.82545455       0.00000000       0.00000000       1.95401609
2
Properties=species:S:1:pos:R:3:forces:R:3 energy=-1.5301501486667357 pbc="F F F"
Tb       0.00000000       0.00000000       0.00000000       0.00000000       0.00000000      -1.79416132
Tb       0.00000000       0.00000000       2.88424242       0.00000000       0.00000000       1.79416132
2
Properties=species:S:1:pos:R:3:forces:R:3 energy=-1.6302970336150424 pbc="F F F"
Tb       0.00000000       0.00000000       0.00000000       0.00000000       0.00000000      -1.60887492
Tb       0.00000000       0.00000000       2.94303030       0.00000000       0.00000000       1.60887492
2
Properties=species:S:1:pos:R:3:forces:R:3 energy=-1.7188721936929447 pbc="F F F"
Tb       0.00000000       0.00000000       0.00000000       0.00000000       0.00000000      -1.40103769
Tb       0.00000000       0.00000000       3.00181818       0.00000000       0.00000000       1.40103769
2
Properties=species:S:1:pos:R:3:forces:R:3 energy=-1.7946461536290346 pbc="F F F"
Tb       0.00000000       0.00000000       0.00000000       0.00000000       0.00000000      -1.17388964
Tb       0.00000000       0.00000000       3.06060606       0.00000000       0.00000000       1.17388964
2
Properties=species:S:1:pos:R:3:forces:R:3 energy=-1.8565829706816903 pbc="F F F"
Tb       0.00000000       0.00000000       0.00000000       0.00000000       0.00000000      -0.93089426
Tb       0.00000000       0.00000000       3.11939394       0.00000000       0.00000000       0.93089426
2
Properties=species:S:1:pos:R:3:forces:R:3 energy=-1.9038594325023885 pbc="F F F"
Tb       0.00000000       0.00000000       0.00000000       0.00000000       0.00000000      -0.67581552
Tb       0.00000000       0.00000000       3.17818182       0.00000000       0.00000000       0.67581552
2
Properties=species:S:1:pos:R:3:forces:R:3 energy=-1.9358938701058124 pbc="F F F"
Tb       0.00000000       0.00000000       0.00000000       0.00000000       0.00000000      -0.41321120
Tb       0.00000000       0.00000000       3.23696970       0.00000000       0.00000000       0.41321120
2
Properties=species:S:1:pos:R:3:forces:R:3 energy=-1.9524165016860717 pbc="F F F"
Tb       0.00000000       0.00000000       0.00000000       0.00000000       0.00000000      -0.14932725
Tb       0.00000000       0.00000000       3.29575758       0.00000000       0.00000000       0.14932725
2
Properties=species:S:1:pos:R:3:forces:R:3 energy=-1.9535975774352778 pbc="F F F"
Tb       0.00000000       0.00000000       0.00000000       0.00000000       0.00000000       0.10698371
Tb       0.00000000       0.00000000       3.35454545       0.00000000       0.00000000      -0.10698371
2
Properties=species:S:1:pos:R:3:forces:R:3 energy=-1.9402092657587529 pbc="F F F"
Tb       0.00000000       0.00000000       0.00000000       0.00000000       0.00000000       0.34428808
Tb       0.00000000       0.00000000       3.41333333       0.00000000       0.00000000      -0.34428808
2
Properties=species:S:1:pos:R:3:forces:R:3 energy=-1.9137369820801828 pbc="F F F"
Tb       0.00000000       0.00000000       0.00000000       0.00000000       0.00000000       0.55005425
Tb       0.00000000       0.00000000       3.47212121       0.00000000       0.00000000      -0.55005425
2
Properties=species:S:1:pos:R:3:forces:R:3 energy=-1.8763705293403237 pbc="F F F"
Tb       0.00000000       0.00000000       0.00000000       0.00000000       0.00000000       0.71339971
Tb       0.00000000       0.00000000       3.53090909       0.00000000       0.00000000      -0.71339971
2
Properties=species:S:1:pos:R:3:forces:R:3 energy=-1.8308163888834217 pbc="F F F"
Tb       0.00000000       0.00000000       0.00000000       0.00000000       0.00000000       0.82808304
Tb       0.00000000       0.00000000       3.58969697       0.00000000       0.00000000      -0.82808304
2
Properties=species:S:1:pos:R:3:forces:R:3 energy=-1.779958587867423 pbc="F F F"
Tb       0.00000000       0.00000000       0.00000000       0.00000000       0.00000000       0.89450806
Tb       0.00000000       0.00000000       3.64848485       0.00000000       0.00000000      -0.89450806
2
Properties=species:S:1:pos:R:3:forces:R:3 energy=-1.726452872828475 pbc="F F F"
Tb       0.00000000       0.00000000       0.00000000       0.00000000       0.00000000       0.91983867
Tb       0.00000000       0.00000000       3.70727273       0.00000000       0.00000000      -0.91983867
2
Properties=species:S:1:pos:R:3:forces:R:3 energy=-1.6723775658467193 pbc="F F F"
Tb       0.00000000       0.00000000       0.00000000       0.00000000       0.00000000       0.91611403
Tb       0.00000000       0.00000000       3.76606061       0.00000000       0.00000000      -0.91611403
2
Properties=species:S:1:pos:R:3:forces:R:3 energy=-1.6190399358138863 pbc="F F F"
Tb       0.00000000       0.00000000       0.00000000       0.00000000       0.00000000       0.89702153
Tb       0.00000000       0.00000000       3.82484848       0.00000000       0.00000000      -0.89702153
2
Properties=species:S:1:pos:R:3:forces:R:3 energy=-1.566973602339455 pbc="F F F"
Tb       0.00000000       0.00000000       0.00000000       0.00000000       0.00000000       0.87451702
Tb       0.00000000       0.00000000       3.88363636       0.00000000       0.00000000      -0.87451702
2
Properties=species:S:1:pos:R:3:forces:R:3 energy=-1.5161282472475295 pbc="F F F"
Tb       0.00000000       0.00000000       0.00000000       0.00000000       0.00000000       0.85639983
Tb       0.00000000       0.00000000       3.94242424       0.00000000       0.00000000      -0.85639983
2
Properties=species:S:1:pos:R:3:forces:R:3 energy=-1.4661398251903388 pbc="F F F"
Tb       0.00000000       0.00000000       0.00000000       0.00000000       0.00000000       0.84542447
Tb       0.00000000       0.00000000       4.00121212       0.00000000       0.00000000      -0.84542447
2
Properties=species:S:1:pos:R:3:forces:R:3 energy=-1.4166185922987227 pbc="F F F"
Tb       0.00000000       0.00000000       0.00000000       0.00000000       0.00000000       0.83989608
Tb       0.00000000       0.00000000       4.06000000       0.00000000       0.00000000      -0.83989608
2
Properties=species:S:1:pos:R:3:forces:R:3 energy=-1.367370088526738 pbc="F F F"
Tb       0.00000000       0.00000000       0.00000000       0.00000000       0.00000000       0.83528328
Tb       0.00000000       0.00000000       4.11878788       0.00000000       0.00000000      -0.83528328
2
Properties=species:S:1:pos:R:3:forces:R:3 energy=-1.3184987190209416 pbc="F F F"
Tb       0.00000000       0.00000000       0.00000000       0.00000000       0.00000000       0.82612240
Tb       0.00000000       0.00000000       4.17757576       0.00000000       0.00000000      -0.82612240
2
Properties=species:S:1:pos:R:3:forces:R:3 energy=-1.27041991980357 pbc="F F F"
Tb       0.00000000       0.00000000       0.00000000       0.00000000       0.00000000       0.80769002
Tb       0.00000000       0.00000000       4.23636364       0.00000000       0.00000000      -0.80769002
2
Properties=species:S:1:pos:R:3:forces:R:3 energy=-1.2237730284531638 pbc="F F F"
Tb       0.00000000       0.00000000       0.00000000       0.00000000       0.00000000       0.77710217
Tb       0.00000000       0.00000000       4.29515152       0.00000000       0.00000000      -0.77710217
2
Properties=species:S:1:pos:R:3:forces:R:3 energy=-1.1793026213442652 pbc="F F F"
Tb       0.00000000       0.00000000       0.00000000       0.00000000       0.00000000       0.73382133
Tb       0.00000000       0.00000000       4.35393939       0.00000000       0.00000000      -0.73382133
2
Properties=species:S:1:pos:R:3:forces:R:3 energy=-1.1377098723346348 pbc="F F F"
Tb       0.00000000       0.00000000       0.00000000       0.00000000       0.00000000       0.67962027
Tb       0.00000000       0.00000000       4.41272727       0.00000000       0.00000000      -0.67962027
2
Properties=species:S:1:pos:R:3:forces:R:3 energy=-1.0995372278650546 pbc="F F F"
Tb       0.00000000       0.00000000       0.00000000       0.00000000       0.00000000       0.61820924
Tb       0.00000000       0.00000000       4.47151515       0.00000000       0.00000000      -0.61820924
2
Properties=species:S:1:pos:R:3:forces:R:3 energy=-1.0650672109437875 pbc="F F F"
Tb       0.00000000       0.00000000       0.00000000       0.00000000       0.00000000       0.55454612
Tb       0.00000000       0.00000000       4.53030303       0.00000000       0.00000000      -0.55454612
2
Properties=species:S:1:pos:R:3:forces:R:3 energy=-1.0342744368236878 pbc="F F F"
Tb       0.00000000       0.00000000       0.00000000       0.00000000       0.00000000       0.49401832
Tb       0.00000000       0.00000000       4.58909091       0.00000000       0.00000000      -0.49401832
2
Properties=species:S:1:pos:R:3:forces:R:3 energy=-1.0068238692123666 pbc="F F F"
Tb       0.00000000       0.00000000       0.00000000       0.00000000       0.00000000       0.44158933
Tb       0.00000000       0.00000000       4.64787879       0.00000000       0.00000000      -0.44158933
2
Properties=species:S:1:pos:R:3:forces:R:3 energy=-0.9821200600444222 pbc="F F F"
Tb       0.00000000       0.00000000       0.00000000       0.00000000       0.00000000       0.40104109
Tb       0.00000000       0.00000000       4.70666667       0.00000000       0.00000000      -0.40104109
2
Properties=species:S:1:pos:R:3:forces:R:3 energy=-0.9593969647616251 pbc="F F F"
Tb       0.00000000       0.00000000       0.00000000       0.00000000       0.00000000       0.37441733
Tb       0.00000000       0.00000000       4.76545455       0.00000000       0.00000000      -0.37441733
2
Properties=species:S:1:pos:R:3:forces:R:3 energy=-0.9378228502395209 pbc="F F F"
Tb       0.00000000       0.00000000       0.00000000       0.00000000       0.00000000       0.36170557
Tb       0.00000000       0.00000000       4.82424242       0.00000000       0.00000000      -0.36170557
2
Properties=species:S:1:pos:R:3:forces:R:3 energy=-0.916637174978259 pbc="F F F"
Tb       0.00000000       0.00000000       0.00000000       0.00000000       0.00000000       0.36081302
Tb       0.00000000       0.00000000       4.88303030       0.00000000       0.00000000      -0.36081302
2
Properties=species:S:1:pos:R:3:forces:R:3 energy=-0.8952437638336634 pbc="F F F"
Tb       0.00000000       0.00000000       0.00000000       0.00000000       0.00000000       0.36789364
Tb       0.00000000       0.00000000       4.94181818       0.00000000       0.00000000      -0.36789364
2
Properties=species:S:1:pos:R:3:forces:R:3 energy=-0.8733214875069379 pbc="F F F"
Tb       0.00000000       0.00000000       0.00000000       0.00000000       0.00000000       0.37799805
Tb       0.00000000       0.00000000       5.00060606       0.00000000       0.00000000      -0.37799805
2
Properties=species:S:1:pos:R:3:forces:R:3 energy=-0.8508408934085095 pbc="F F F"
Tb       0.00000000       0.00000000       0.00000000       0.00000000       0.00000000       0.38600639
Tb       0.00000000       0.00000000       5.05939394       0.00000000       0.00000000      -0.38600639
2
Properties=species:S:1:pos:R:3:forces:R:3 energy=-0.8280639179701893 pbc="F F F"
Tb       0.00000000       0.00000000       0.00000000       0.00000000       0.00000000       0.38756949
Tb       0.00000000       0.00000000       5.11818182       0.00000000       0.00000000      -0.38756949
2
Properties=species:S:1:pos:R:3:forces:R:3 energy=-0.8054554941249228 pbc="F F F"
Tb       0.00000000       0.00000000       0.00000000       0.00000000       0.00000000       0.37990046
Tb       0.00000000       0.00000000       5.17696970       0.00000000       0.00000000      -0.37990046
2
Properties=species:S:1:pos:R:3:forces:R:3 energy=-0.7835970332889991 pbc="F F F"
Tb       0.00000000       0.00000000       0.00000000       0.00000000       0.00000000       0.36210701
Tb       0.00000000       0.00000000       5.23575758       0.00000000       0.00000000      -0.36210701
2
Properties=species:S:1:pos:R:3:forces:R:3 energy=-0.7630627598113248 pbc="F F F"
Tb       0.00000000       0.00000000       0.00000000       0.00000000       0.00000000       0.33509037
Tb       0.00000000       0.00000000       5.29454545       0.00000000       0.00000000      -0.33509037
2
Properties=species:S:1:pos:R:3:forces:R:3 energy=-0.7443353272195083 pbc="F F F"
Tb       0.00000000       0.00000000       0.00000000       0.00000000       0.00000000       0.30107644
Tb       0.00000000       0.00000000       5.35333333       0.00000000       0.00000000      -0.30107644
2
Properties=species:S:1:pos:R:3:forces:R:3 energy=-0.7277435175268302 pbc="F F F"
Tb       0.00000000       0.00000000       0.00000000       0.00000000       0.00000000       0.26300019
Tb       0.00000000       0.00000000       5.41212121       0.00000000       0.00000000      -0.26300019
2
Properties=species:S:1:pos:R:3:forces:R:3 energy=-0.7134346621206911 pbc="F F F"
Tb       0.00000000       0.00000000       0.00000000       0.00000000       0.00000000       0.22379683
Tb       0.00000000       0.00000000       5.47090909       0.00000000       0.00000000      -0.22379683
2
Properties=species:S:1:pos:R:3:forces:R:3 energy=-0.7014013573147613 pbc="F F F"
Tb       0.00000000       0.00000000       0.00000000       0.00000000       0.00000000       0.18596700
Tb       0.00000000       0.00000000       5.52969697       0.00000000       0.00000000      -0.18596700
2
Properties=species:S:1:pos:R:3:forces:R:3 energy=-0.6915076892247289 pbc="F F F"
Tb       0.00000000       0.00000000       0.00000000       0.00000000       0.00000000       0.15126832
Tb       0.00000000       0.00000000       5.58848485       0.00000000       0.00000000      -0.15126832
2
Properties=species:S:1:pos:R:3:forces:R:3 energy=-0.6835374717649048 pbc="F F F"
Tb       0.00000000       0.00000000       0.00000000       0.00000000       0.00000000       0.12074894
Tb       0.00000000       0.00000000       5.64727273       0.00000000       0.00000000      -0.12074894
2
Properties=species:S:1:pos:R:3:forces:R:3 energy=-0.6772234365010745 pbc="F F F"
Tb       0.00000000       0.00000000       0.00000000       0.00000000       0.00000000       0.09478447
Tb       0.00000000       0.00000000       5.70606061       0.00000000       0.00000000      -0.09478447
2
Properties=species:S:1:pos:R:3:forces:R:3 energy=-0.6722966639079514 pbc="F F F"
Tb       0.00000000       0.00000000       0.00000000       0.00000000       0.00000000       0.07340553
Tb       0.00000000       0.00000000       5.76484848       0.00000000       0.00000000      -0.07340553
2
Properties=species:S:1:pos:R:3:forces:R:3 energy=-0.6685006045478803 pbc="F F F"
Tb       0.00000000       0.00000000       0.00000000       0.00000000       0.00000000       0.05651379
Tb       0.00000000       0.00000000       5.82363636       0.00000000       0.00000000      -0.05651379
2
Properties=species:S:1:pos:R:3:forces:R:3 energy=-0.6655698027964996 pbc="F F F"
Tb       0.00000000       0.00000000       0.00000000       0.00000000       0.00000000       0.04405197
Tb       0.00000000       0.00000000       5.88242424       0.00000000       0.00000000      -0.04405197
2
Properties=species:S:1:pos:R:3:forces:R:3 energy=-0.6632340101472062 pbc="F F F"
Tb       0.00000000       0.00000000       0.00000000       0.00000000       0.00000000       0.03611303
Tb       0.00000000       0.00000000       5.94121212       0.00000000       0.00000000      -0.03611303
2
Properties=species:S:1:pos:R:3:forces:R:3 energy=-0.6612280055543273 pbc="F F F"
Tb       0.00000000       0.00000000       0.00000000       0.00000000       0.00000000       0.03298599
Tb       0.00000000       0.00000000       6.00000000       0.00000000       0.00000000      -0.03298599
