2
Properties=species:S:1:pos:R:3:forces:R:3 energy=7408.506008769137 pbc="F F F"
Tc       0.00000000       0.00000000       0.00000000       0.00000000       0.00000000 -120837.91406250
Tc       0.00000000       0.00000000       0.18000000       0.00000000       0.00000000  120837.91406250
2
Properties=species:S:1:pos:R:3:forces:R:3 energy=3091.0592314253877 pbc="F F F"
Tc       0.00000000       0.00000000       0.00000000       0.00000000       0.00000000  -42156.06640625
Tc       0.00000000       0.00000000       0.23878788       0.00000000       0.00000000   42156.06640625
2
Properties=species:S:1:pos:R:3:forces:R:3 energy=1466.30495896445 pbc="F F F"
Tc       0.00000000       0.00000000       0.00000000       0.00000000       0.00000000  -17329.05078125
Tc       0.00000000       0.00000000       0.29757576       0.00000000       0.00000000   17329.05078125
2
Properties=species:S:1:pos:R:3:forces:R:3 energy=765.9530912950045 pbc="F F F"
Tc       0.00000000       0.00000000       0.00000000       0.00000000       0.00000000   -7884.07031250
Tc       0.00000000       0.00000000       0.35636364       0.00000000       0.00000000    7884.07031250
2
Properties=species:S:1:pos:R:3:forces:R:3 energy=437.1737028736057 pbc="F F F"
Tc       0.00000000       0.00000000       0.00000000       0.00000000       0.00000000   -3834.14990234
Tc       0.00000000       0.00000000       0.41515152       0.00000000       0.00000000    3834.14990234
2
Properties=species:S:1:pos:R:3:forces:R:3 energy=273.85622853371393 pbc="F F F"
Tc       0.00000000       0.00000000       0.00000000       0.00000000       0.00000000   -1948.85961914
Tc       0.00000000       0.00000000       0.47393939       0.00000000       0.00000000    1948.85961914
2
Properties=species:S:1:pos:R:3:forces:R:3 energy=189.83889458735277 pbc="F F F"
Tc       0.00000000       0.00000000       0.00000000       0.00000000       0.00000000   -1013.10339355
Tc       0.00000000       0.00000000       0.53272727       0.00000000       0.00000000    1013.10339355
2
Properties=species:S:1:pos:R:3:forces:R:3 energy=146.193753061818 pbc="F F F"
Tc       0.00000000       0.00000000       0.00000000       0.00000000       0.00000000    -522.02294922
Tc       0.00000000       0.00000000       0.59151515       0.00000000       0.00000000     522.02294922
2
Properties=species:S:1:pos:R:3:forces:R:3 energy=124.16728679989505 pbc="F F F"
Tc       0.00000000       0.00000000       0.00000000       0.00000000       0.00000000    -253.92790222
Tc       0.00000000       0.00000000       0.65030303       0.00000000       0.00000000     253.92790222
2
Properties=species:S:1:pos:R:3:forces:R:3 energy=113.91100036253499 pbc="F F F"
Tc       0.00000000       0.00000000       0.00000000       0.00000000       0.00000000    -111.43414307
Tc       0.00000000       0.00000000       0.70909091       0.00000000       0.00000000     111.43414307
2
Properties=species:S:1:pos:R:3:forces:R:3 energy=109.43639125996769 pbc="F F F"
Tc       0.00000000       0.00000000       0.00000000       0.00000000       0.00000000     -52.63542175
Tc       0.00000000       0.00000000       0.76787879       0.00000000       0.00000000      52.63542175
2
Properties=species:S:1:pos:R:3:forces:R:3 energy=106.52586156878125 pbc="F F F"
Tc       0.00000000       0.00000000       0.00000000       0.00000000       0.00000000     -54.92669296
Tc       0.00000000       0.00000000       0.82666667       0.00000000       0.00000000      54.92669296
2
Properties=species:S:1:pos:R:3:forces:R:3 energy=102.13226168779333 pbc="F F F"
Tc       0.00000000       0.00000000       0.00000000       0.00000000       0.00000000    -101.28710938
Tc       0.00000000       0.00000000       0.88545455       0.00000000       0.00000000     101.28710938
2
Properties=species:S:1:pos:R:3:forces:R:3 energy=93.92493370236909 pbc="F F F"
Tc       0.00000000       0.00000000       0.00000000       0.00000000       0.00000000    -177.87231445
Tc       0.00000000       0.00000000       0.94424242       0.00000000       0.00000000     177.87231445
2
Properties=species:S:1:pos:R:3:forces:R:3 energy=81.89630933549688 pbc="F F F"
Tc       0.00000000       0.00000000       0.00000000       0.00000000       0.00000000    -225.87681580
Tc       0.00000000       0.00000000       1.00303030       0.00000000       0.00000000     225.87681580
2
Properties=species:S:1:pos:R:3:forces:R:3 energy=67.85882762171255 pbc="F F F"
Tc       0.00000000       0.00000000       0.00000000       0.00000000       0.00000000    -247.91760254
Tc       0.00000000       0.00000000       1.06181818       0.00000000       0.00000000     247.91760254
2
Properties=species:S:1:pos:R:3:forces:R:3 energy=53.1630669894988 pbc="F F F"
Tc       0.00000000       0.00000000       0.00000000       0.00000000       0.00000000    -248.75480652
Tc       0.00000000       0.00000000       1.12060606       0.00000000       0.00000000     248.75480652
2
Properties=species:S:1:pos:R:3:forces:R:3 energy=38.97493637270944 pbc="F F F"
Tc       0.00000000       0.00000000       0.00000000       0.00000000       0.00000000    -231.06642151
Tc       0.00000000       0.00000000       1.17939394       0.00000000       0.00000000     231.06642151
2
Properties=species:S:1:pos:R:3:forces:R:3 energy=26.27480547859975 pbc="F F F"
Tc       0.00000000       0.00000000       0.00000000       0.00000000       0.00000000    -199.32223511
Tc       0.00000000       0.00000000       1.23818182       0.00000000       0.00000000     199.32223511
2
Properties=species:S:1:pos:R:3:forces:R:3 energy=15.657896976719215 pbc="F F F"
Tc       0.00000000       0.00000000       0.00000000       0.00000000       0.00000000    -161.22825623
Tc       0.00000000       0.00000000       1.29696970       0.00000000       0.00000000     161.22825623
2
Properties=species:S:1:pos:R:3:forces:R:3 energy=7.3918778675129575 pbc="F F F"
Tc       0.00000000       0.00000000       0.00000000       0.00000000       0.00000000    -119.57335663
Tc       0.00000000       0.00000000       1.35575758       0.00000000       0.00000000     119.57335663
2
Properties=species:S:1:pos:R:3:forces:R:3 energy=1.5393533149171938 pbc="F F F"
Tc       0.00000000       0.00000000       0.00000000       0.00000000       0.00000000     -81.19162750
Tc       0.00000000       0.00000000       1.41454545       0.00000000       0.00000000      81.19162750
2
Properties=species:S:1:pos:R:3:forces:R:3 energy=-2.426133737365203 pbc="F F F"
Tc       0.00000000       0.00000000       0.00000000       0.00000000       0.00000000     -56.03592682
Tc       0.00000000       0.00000000       1.47333333       0.00000000       0.00000000      56.03592682
2
Properties=species:S:1:pos:R:3:forces:R:3 energy=-5.241192901976873 pbc="F F F"
Tc       0.00000000       0.00000000       0.00000000       0.00000000       0.00000000     -40.60173035
Tc       0.00000000       0.00000000       1.53212121       0.00000000       0.00000000      40.60173035
2
Properties=species:S:1:pos:R:3:forces:R:3 energy=-7.249202355304206 pbc="F F F"
Tc       0.00000000       0.00000000       0.00000000       0.00000000       0.00000000     -27.97980881
Tc       0.00000000       0.00000000       1.59090909       0.00000000       0.00000000      27.97980881
2
Properties=species:S:1:pos:R:3:forces:R:3 energy=-8.57643342290254 pbc="F F F"
Tc       0.00000000       0.00000000       0.00000000       0.00000000       0.00000000     -17.70771599
Tc       0.00000000       0.00000000       1.64969697       0.00000000       0.00000000      17.70771599
2
Properties=species:S:1:pos:R:3:forces:R:3 energy=-9.400583815659681 pbc="F F F"
Tc       0.00000000       0.00000000       0.00000000       0.00000000       0.00000000     -10.89639187
Tc       0.00000000       0.00000000       1.70848485       0.00000000       0.00000000      10.89639187
2
Properties=species:S:1:pos:R:3:forces:R:3 energy=-9.912914349906217 pbc="F F F"
Tc       0.00000000       0.00000000       0.00000000       0.00000000       0.00000000      -6.89588404
Tc       0.00000000       0.00000000       1.76727273       0.00000000       0.00000000       6.89588404
2
Properties=species:S:1:pos:R:3:forces:R:3 energy=-10.242500649531808 pbc="F F F"
Tc       0.00000000       0.00000000       0.00000000       0.00000000       0.00000000      -4.49935436
Tc       0.00000000       0.00000000       1.82606061       0.00000000       0.00000000       4.49935436
2
Properties=species:S:1:pos:R:3:forces:R:3 energy=-10.456489621019866 pbc="F F F"
Tc       0.00000000       0.00000000       0.00000000       0.00000000       0.00000000      -2.85932589
Tc       0.00000000       0.00000000       1.88484848       0.00000000       0.00000000       2.85932589
2
Properties=species:S:1:pos:R:3:forces:R:3 energy=-10.58457289718094 pbc="F F F"
Tc       0.00000000       0.00000000       0.00000000       0.00000000       0.00000000      -1.52816510
Tc       0.00000000       0.00000000       1.94363636       0.00000000       0.00000000       1.52816510
2
Properties=species:S:1:pos:R:3:forces:R:3 energy=-10.638536435047925 pbc="F F F"
Tc       0.00000000       0.00000000       0.00000000       0.00000000       0.00000000      -0.32327336
Tc       0.00000000       0.00000000       2.00242424       0.00000000       0.00000000       0.32327336
2
Properties=species:S:1:pos:R:3:forces:R:3 energy=-10.62453273276872 pbc="F F F"
Tc       0.00000000       0.00000000       0.00000000       0.00000000       0.00000000       0.77955979
Tc       0.00000000       0.00000000       2.06121212       0.00000000       0.00000000      -0.77955979
2
Properties=species:S:1:pos:R:3:forces:R:3 energy=-10.5498821780774 pbc="F F F"
Tc       0.00000000       0.00000000       0.00000000       0.00000000       0.00000000       1.72905481
Tc       0.00000000       0.00000000       2.12000000       0.00000000       0.00000000      -1.72905481
2
Properties=species:S:1:pos:R:3:forces:R:3 energy=-10.425396138580508 pbc="F F F"
Tc       0.00000000       0.00000000       0.00000000       0.00000000       0.00000000       2.46769500
Tc       0.00000000       0.00000000       2.17878788       0.00000000       0.00000000      -2.46769500
2
Properties=species:S:1:pos:R:3:forces:R:3 energy=-10.264351242024382 pbc="F F F"
Tc       0.00000000       0.00000000       0.00000000       0.00000000       0.00000000       2.97250772
Tc       0.00000000       0.00000000       2.23757576       0.00000000       0.00000000      -2.97250772
2
Properties=species:S:1:pos:R:3:forces:R:3 energy=-10.08017431090162 pbc="F F F"
Tc       0.00000000       0.00000000       0.00000000       0.00000000       0.00000000       3.26001215
Tc       0.00000000       0.00000000       2.29636364       0.00000000       0.00000000      -3.26001215
2
Properties=species:S:1:pos:R:3:forces:R:3 energy=-9.884511031936775 pbc="F F F"
Tc       0.00000000       0.00000000       0.00000000       0.00000000       0.00000000       3.37128663
Tc       0.00000000       0.00000000       2.35515152       0.00000000       0.00000000      -3.37128663
2
Properties=species:S:1:pos:R:3:forces:R:3 energy=-9.686263504345005 pbc="F F F"
Tc       0.00000000       0.00000000       0.00000000       0.00000000       0.00000000       3.35643673
Tc       0.00000000       0.00000000       2.41393939       0.00000000       0.00000000      -3.35643673
2
Properties=species:S:1:pos:R:3:forces:R:3 energy=-9.491378915025576 pbc="F F F"
Tc       0.00000000       0.00000000       0.00000000       0.00000000       0.00000000       3.26454329
Tc       0.00000000       0.00000000       2.47272727       0.00000000       0.00000000      -3.26454329
2
Properties=species:S:1:pos:R:3:forces:R:3 energy=-9.303133102442972 pbc="F F F"
Tc       0.00000000       0.00000000       0.00000000       0.00000000       0.00000000       3.13631272
Tc       0.00000000       0.00000000       2.53151515       0.00000000       0.00000000      -3.13631272
2
Properties=species:S:1:pos:R:3:forces:R:3 energy=-9.12282937111987 pbc="F F F"
Tc       0.00000000       0.00000000       0.00000000       0.00000000       0.00000000       2.99704814
Tc       0.00000000       0.00000000       2.59030303       0.00000000       0.00000000      -2.99704814
2
Properties=species:S:1:pos:R:3:forces:R:3 energy=-8.950853183573436 pbc="F F F"
Tc       0.00000000       0.00000000       0.00000000       0.00000000       0.00000000       2.85211992
Tc       0.00000000       0.00000000       2.64909091       0.00000000       0.00000000      -2.85211992
2
Properties=species:S:1:pos:R:3:forces:R:3 energy=-8.787826778978554 pbc="F F F"
Tc       0.00000000       0.00000000       0.00000000       0.00000000       0.00000000       2.68979383
Tc       0.00000000       0.00000000       2.70787879       0.00000000       0.00000000      -2.68979383
2
Properties=species:S:1:pos:R:3:forces:R:3 energy=-8.635216769089144 pbc="F F F"
Tc       0.00000000       0.00000000       0.00000000       0.00000000       0.00000000       2.49679089
Tc       0.00000000       0.00000000       2.76666667       0.00000000       0.00000000      -2.49679089
2
Properties=species:S:1:pos:R:3:forces:R:3 energy=-8.49465849812746 pbc="F F F"
Tc       0.00000000       0.00000000       0.00000000       0.00000000       0.00000000       2.28475976
Tc       0.00000000       0.00000000       2.82545455       0.00000000       0.00000000      -2.28475976
2
Properties=species:S:1:pos:R:3:forces:R:3 energy=-8.366330441889376 pbc="F F F"
Tc       0.00000000       0.00000000       0.00000000       0.00000000       0.00000000       2.08381653
Tc       0.00000000       0.00000000       2.88424242       0.00000000       0.00000000      -2.08381653
2
Properties=species:S:1:pos:R:3:forces:R:3 energy=-8.249597542227333 pbc="F F F"
Tc       0.00000000       0.00000000       0.00000000       0.00000000       0.00000000       1.88500202
Tc       0.00000000       0.00000000       2.94303030       0.00000000       0.00000000      -1.88500202
2
Properties=species:S:1:pos:R:3:forces:R:3 energy=-8.145152973373198 pbc="F F F"
Tc       0.00000000       0.00000000       0.00000000       0.00000000       0.00000000       1.66483164
Tc       0.00000000       0.00000000       3.00181818       0.00000000       0.00000000      -1.66483164
2
Properties=species:S:1:pos:R:3:forces:R:3 energy=-8.053994769369481 pbc="F F F"
Tc       0.00000000       0.00000000       0.00000000       0.00000000       0.00000000       1.43786049
Tc       0.00000000       0.00000000       3.06060606       0.00000000       0.00000000      -1.43786049
2
Properties=species:S:1:pos:R:3:forces:R:3 energy=-7.975643391277596 pbc="F F F"
Tc       0.00000000       0.00000000       0.00000000       0.00000000       0.00000000       1.23356533
Tc       0.00000000       0.00000000       3.11939394       0.00000000       0.00000000      -1.23356533
2
Properties=species:S:1:pos:R:3:forces:R:3 energy=-7.908116543008209 pbc="F F F"
Tc       0.00000000       0.00000000       0.00000000       0.00000000       0.00000000       1.07171130
Tc       0.00000000       0.00000000       3.17818182       0.00000000       0.00000000      -1.07171130
2
Properties=species:S:1:pos:R:3:forces:R:3 energy=-7.8486749790380985 pbc="F F F"
Tc       0.00000000       0.00000000       0.00000000       0.00000000       0.00000000       0.95853645
Tc       0.00000000       0.00000000       3.23696970       0.00000000       0.00000000      -0.95853645
2
Properties=species:S:1:pos:R:3:forces:R:3 energy=-7.79455342438037 pbc="F F F"
Tc       0.00000000       0.00000000       0.00000000       0.00000000       0.00000000       0.88911283
Tc       0.00000000       0.00000000       3.29575758       0.00000000       0.00000000      -0.88911283
2
Properties=species:S:1:pos:R:3:forces:R:3 energy=-7.7435250769629995 pbc="F F F"
Tc       0.00000000       0.00000000       0.00000000       0.00000000       0.00000000       0.85078675
Tc       0.00000000       0.00000000       3.35454545       0.00000000       0.00000000      -0.85078675
2
Properties=species:S:1:pos:R:3:forces:R:3 energy=-7.69423116898529 pbc="F F F"
Tc       0.00000000       0.00000000       0.00000000       0.00000000       0.00000000       0.82733154
Tc       0.00000000       0.00000000       3.41333333       0.00000000       0.00000000      -0.82733154
2
Properties=species:S:1:pos:R:3:forces:R:3 energy=-7.6462615097772595 pbc="F F F"
Tc       0.00000000       0.00000000       0.00000000       0.00000000       0.00000000       0.80348170
Tc       0.00000000       0.00000000       3.47212121       0.00000000       0.00000000      -0.80348170
2
Properties=species:S:1:pos:R:3:forces:R:3 energy=-7.599977276127466 pbc="F F F"
Tc       0.00000000       0.00000000       0.00000000       0.00000000       0.00000000       0.76884472
Tc       0.00000000       0.00000000       3.53090909       0.00000000       0.00000000      -0.76884472
2
Properties=species:S:1:pos:R:3:forces:R:3 energy=-7.556148275262113 pbc="F F F"
Tc       0.00000000       0.00000000       0.00000000       0.00000000       0.00000000       0.71994340
Tc       0.00000000       0.00000000       3.58969697       0.00000000       0.00000000      -0.71994340
2
Properties=species:S:1:pos:R:3:forces:R:3 energy=-7.5155514019445 pbc="F F F"
Tc       0.00000000       0.00000000       0.00000000       0.00000000       0.00000000       0.65985280
Tc       0.00000000       0.00000000       3.64848485       0.00000000       0.00000000      -0.65985280
2
Properties=species:S:1:pos:R:3:forces:R:3 energy=-7.478643323780039 pbc="F F F"
Tc       0.00000000       0.00000000       0.00000000       0.00000000       0.00000000       0.59582704
Tc       0.00000000       0.00000000       3.70727273       0.00000000       0.00000000      -0.59582704
2
Properties=species:S:1:pos:R:3:forces:R:3 energy=-7.4454100604356785 pbc="F F F"
Tc       0.00000000       0.00000000       0.00000000       0.00000000       0.00000000       0.53614688
Tc       0.00000000       0.00000000       3.76606061       0.00000000       0.00000000      -0.53614688
2
Properties=species:S:1:pos:R:3:forces:R:3 energy=-7.415388333606072 pbc="F F F"
Tc       0.00000000       0.00000000       0.00000000       0.00000000       0.00000000       0.48744226
Tc       0.00000000       0.00000000       3.82484848       0.00000000       0.00000000      -0.48744226
2
Properties=species:S:1:pos:R:3:forces:R:3 energy=-7.387812793990024 pbc="F F F"
Tc       0.00000000       0.00000000       0.00000000       0.00000000       0.00000000       0.45321074
Tc       0.00000000       0.00000000       3.88363636       0.00000000       0.00000000      -0.45321074
2
Properties=species:S:1:pos:R:3:forces:R:3 energy=-7.361812427514524 pbc="F F F"
Tc       0.00000000       0.00000000       0.00000000       0.00000000       0.00000000       0.43366182
Tc       0.00000000       0.00000000       3.94242424       0.00000000       0.00000000      -0.43366182
2
Properties=species:S:1:pos:R:3:forces:R:3 energy=-7.336582210376046 pbc="F F F"
Tc       0.00000000       0.00000000       0.00000000       0.00000000       0.00000000       0.42644989
Tc       0.00000000       0.00000000       4.00121212       0.00000000       0.00000000      -0.42644989
2
Properties=species:S:1:pos:R:3:forces:R:3 energy=-7.311504816557496 pbc="F F F"
Tc       0.00000000       0.00000000       0.00000000       0.00000000       0.00000000       0.42777261
Tc       0.00000000       0.00000000       4.06000000       0.00000000       0.00000000      -0.42777261
2
Properties=species:S:1:pos:R:3:forces:R:3 energy=-7.286202517050717 pbc="F F F"
Tc       0.00000000       0.00000000       0.00000000       0.00000000       0.00000000       0.43341330
Tc       0.00000000       0.00000000       4.11878788       0.00000000       0.00000000      -0.43341330
2
Properties=species:S:1:pos:R:3:forces:R:3 energy=-7.260537663029298 pbc="F F F"
Tc       0.00000000       0.00000000       0.00000000       0.00000000       0.00000000       0.43948054
Tc       0.00000000       0.00000000       4.17757576       0.00000000       0.00000000      -0.43948054
2
Properties=species:S:1:pos:R:3:forces:R:3 energy=-7.2345829255397875 pbc="F F F"
Tc       0.00000000       0.00000000       0.00000000       0.00000000       0.00000000       0.44284284
Tc       0.00000000       0.00000000       4.23636364       0.00000000       0.00000000      -0.44284284
2
Properties=species:S:1:pos:R:3:forces:R:3 energy=-7.208566929730017 pbc="F F F"
Tc       0.00000000       0.00000000       0.00000000       0.00000000       0.00000000       0.44128555
Tc       0.00000000       0.00000000       4.29515152       0.00000000       0.00000000      -0.44128555
2
Properties=species:S:1:pos:R:3:forces:R:3 energy=-7.182821606356722 pbc="F F F"
Tc       0.00000000       0.00000000       0.00000000       0.00000000       0.00000000       0.43350741
Tc       0.00000000       0.00000000       4.35393939       0.00000000       0.00000000      -0.43350741
2
Properties=species:S:1:pos:R:3:forces:R:3 energy=-7.157729028442148 pbc="F F F"
Tc       0.00000000       0.00000000       0.00000000       0.00000000       0.00000000       0.41902047
Tc       0.00000000       0.00000000       4.41272727       0.00000000       0.00000000      -0.41902047
2
Properties=species:S:1:pos:R:3:forces:R:3 energy=-7.133682253606275 pbc="F F F"
Tc       0.00000000       0.00000000       0.00000000       0.00000000       0.00000000       0.39803281
Tc       0.00000000       0.00000000       4.47151515       0.00000000       0.00000000      -0.39803281
2
Properties=species:S:1:pos:R:3:forces:R:3 energy=-7.1110419715631235 pbc="F F F"
Tc       0.00000000       0.00000000       0.00000000       0.00000000       0.00000000       0.37134141
Tc       0.00000000       0.00000000       4.53030303       0.00000000       0.00000000      -0.37134141
2
Properties=species:S:1:pos:R:3:forces:R:3 energy=-7.090108866572511 pbc="F F F"
Tc       0.00000000       0.00000000       0.00000000       0.00000000       0.00000000       0.34022129
Tc       0.00000000       0.00000000       4.58909091       0.00000000       0.00000000      -0.34022129
2
Properties=species:S:1:pos:R:3:forces:R:3 energy=-7.071095160929862 pbc="F F F"
Tc       0.00000000       0.00000000       0.00000000       0.00000000       0.00000000       0.30631569
Tc       0.00000000       0.00000000       4.64787879       0.00000000       0.00000000      -0.30631569
2
Properties=species:S:1:pos:R:3:forces:R:3 energy=-7.0541120081238295 pbc="F F F"
Tc       0.00000000       0.00000000       0.00000000       0.00000000       0.00000000       0.27145803
Tc       0.00000000       0.00000000       4.70666667       0.00000000       0.00000000      -0.27145803
2
Properties=species:S:1:pos:R:3:forces:R:3 energy=-7.039161196535278 pbc="F F F"
Tc       0.00000000       0.00000000       0.00000000       0.00000000       0.00000000       0.23747890
Tc       0.00000000       0.00000000       4.76545455       0.00000000       0.00000000      -0.23747890
2
Properties=species:S:1:pos:R:3:forces:R:3 energy=-7.026140381974734 pbc="F F F"
Tc       0.00000000       0.00000000       0.00000000       0.00000000       0.00000000       0.20599692
Tc       0.00000000       0.00000000       4.82424242       0.00000000       0.00000000      -0.20599692
2
Properties=species:S:1:pos:R:3:forces:R:3 energy=-7.014867184629909 pbc="F F F"
Tc       0.00000000       0.00000000       0.00000000       0.00000000       0.00000000       0.17827387
Tc       0.00000000       0.00000000       4.88303030       0.00000000       0.00000000      -0.17827387
2
Properties=species:S:1:pos:R:3:forces:R:3 energy=-7.005090945267896 pbc="F F F"
Tc       0.00000000       0.00000000       0.00000000       0.00000000       0.00000000       0.15509284
Tc       0.00000000       0.00000000       4.94181818       0.00000000       0.00000000      -0.15509284
2
Properties=species:S:1:pos:R:3:forces:R:3 energy=-6.996536161766079 pbc="F F F"
Tc       0.00000000       0.00000000       0.00000000       0.00000000       0.00000000       0.13676153
Tc       0.00000000       0.00000000       5.00060606       0.00000000       0.00000000      -0.13676153
2
Properties=species:S:1:pos:R:3:forces:R:3 energy=-6.988919235433469 pbc="F F F"
Tc       0.00000000       0.00000000       0.00000000       0.00000000       0.00000000       0.12309378
Tc       0.00000000       0.00000000       5.05939394       0.00000000       0.00000000      -0.12309378
2
Properties=species:S:1:pos:R:3:forces:R:3 energy=-6.981983566891084 pbc="F F F"
Tc       0.00000000       0.00000000       0.00000000       0.00000000       0.00000000       0.11347686
Tc       0.00000000       0.00000000       5.11818182       0.00000000       0.00000000      -0.11347686
2
Properties=species:S:1:pos:R:3:forces:R:3 energy=-6.975516833083415 pbc="F F F"
Tc       0.00000000       0.00000000       0.00000000       0.00000000       0.00000000       0.10695155
Tc       0.00000000       0.00000000       5.17696970       0.00000000       0.00000000      -0.10695155
2
Properties=species:S:1:pos:R:3:forces:R:3 energy=-6.969370699160846 pbc="F F F"
Tc       0.00000000       0.00000000       0.00000000       0.00000000       0.00000000       0.10236535
Tc       0.00000000       0.00000000       5.23575758       0.00000000       0.00000000      -0.10236535
2
Properties=species:S:1:pos:R:3:forces:R:3 energy=-6.96346637896662 pbc="F F F"
Tc       0.00000000       0.00000000       0.00000000       0.00000000       0.00000000       0.09854688
Tc       0.00000000       0.00000000       5.29454545       0.00000000       0.00000000      -0.09854688
2
Properties=species:S:1:pos:R:3:forces:R:3 energy=-6.957789201262759 pbc="F F F"
Tc       0.00000000       0.00000000       0.00000000       0.00000000       0.00000000       0.09447895
Tc       0.00000000       0.00000000       5.35333333       0.00000000       0.00000000      -0.09447895
2
Properties=species:S:1:pos:R:3:forces:R:3 energy=-6.952377105449643 pbc="F F F"
Tc       0.00000000       0.00000000       0.00000000       0.00000000       0.00000000       0.08944463
Tc       0.00000000       0.00000000       5.41212121       0.00000000       0.00000000      -0.08944463
2
Properties=species:S:1:pos:R:3:forces:R:3 energy=-6.947298369603751 pbc="F F F"
Tc       0.00000000       0.00000000       0.00000000       0.00000000       0.00000000       0.08308935
Tc       0.00000000       0.00000000       5.47090909       0.00000000       0.00000000      -0.08308935
2
Properties=species:S:1:pos:R:3:forces:R:3 energy=-6.942633585700314 pbc="F F F"
Tc       0.00000000       0.00000000       0.00000000       0.00000000       0.00000000       0.07540414
Tc       0.00000000       0.00000000       5.52969697       0.00000000       0.00000000      -0.07540414
2
Properties=species:S:1:pos:R:3:forces:R:3 energy=-6.938453797963946 pbc="F F F"
Tc       0.00000000       0.00000000       0.00000000       0.00000000       0.00000000       0.06665356
Tc       0.00000000       0.00000000       5.58848485       0.00000000       0.00000000      -0.06665356
2
Properties=species:S:1:pos:R:3:forces:R:3 energy=-6.934809624313025 pbc="F F F"
Tc       0.00000000       0.00000000       0.00000000       0.00000000       0.00000000       0.05730557
Tc       0.00000000       0.00000000       5.64727273       0.00000000       0.00000000      -0.05730557
2
Properties=species:S:1:pos:R:3:forces:R:3 energy=-6.931717928677931 pbc="F F F"
Tc       0.00000000       0.00000000       0.00000000       0.00000000       0.00000000       0.04790479
Tc       0.00000000       0.00000000       5.70606061       0.00000000       0.00000000      -0.04790479
2
Properties=species:S:1:pos:R:3:forces:R:3 energy=-6.929164365161855 pbc="F F F"
Tc       0.00000000       0.00000000       0.00000000       0.00000000       0.00000000       0.03902056
Tc       0.00000000       0.00000000       5.76484848       0.00000000       0.00000000      -0.03902056
2
Properties=species:S:1:pos:R:3:forces:R:3 energy=-6.927107675910866 pbc="F F F"
Tc       0.00000000       0.00000000       0.00000000       0.00000000       0.00000000       0.03118541
Tc       0.00000000       0.00000000       5.82363636       0.00000000       0.00000000      -0.03118541
2
Properties=species:S:1:pos:R:3:forces:R:3 energy=-6.925470187632882 pbc="F F F"
Tc       0.00000000       0.00000000       0.00000000       0.00000000       0.00000000       0.02486123
Tc       0.00000000       0.00000000       5.88242424       0.00000000       0.00000000      -0.02486123
2
Properties=species:S:1:pos:R:3:forces:R:3 energy=-6.924148423976299 pbc="F F F"
Tc       0.00000000       0.00000000       0.00000000       0.00000000       0.00000000       0.02042383
Tc       0.00000000       0.00000000       5.94121212       0.00000000       0.00000000      -0.02042383
2
Properties=species:S:1:pos:R:3:forces:R:3 energy=-6.923024999532464 pbc="F F F"
Tc       0.00000000       0.00000000       0.00000000       0.00000000       0.00000000       0.01818999
Tc       0.00000000       0.00000000       6.00000000       0.00000000       0.00000000      -0.01818999
