2
Properties=species:S:1:pos:R:3:forces:R:3 energy=20222.469349163737 pbc="F F F"
Th       0.00000000       0.00000000       0.00000000       0.00000000       0.00000000 -363890.31250000
Th       0.00000000       0.00000000       0.18000000       0.00000000       0.00000000  363890.31250000
2
Properties=species:S:1:pos:R:3:forces:R:3 energy=7625.126575726236 pbc="F F F"
Th       0.00000000       0.00000000       0.00000000       0.00000000       0.00000000 -117556.98437500
Th       0.00000000       0.00000000       0.23878788       0.00000000       0.00000000  117556.98437500
2
Properties=species:S:1:pos:R:3:forces:R:3 energy=3243.3997690856113 pbc="F F F"
Th       0.00000000       0.00000000       0.00000000       0.00000000       0.00000000  -44623.66015625
Th       0.00000000       0.00000000       0.29757576       0.00000000       0.00000000   44623.66015625
2
Properties=species:S:1:pos:R:3:forces:R:3 energy=1501.3869517027986 pbc="F F F"
Th       0.00000000       0.00000000       0.00000000       0.00000000       0.00000000  -18749.71093750
Th       0.00000000       0.00000000       0.35636364       0.00000000       0.00000000   18749.71093750
2
Properties=species:S:1:pos:R:3:forces:R:3 energy=744.1923716373449 pbc="F F F"
Th       0.00000000       0.00000000       0.00000000       0.00000000       0.00000000   -8494.13769531
Th       0.00000000       0.00000000       0.41515152       0.00000000       0.00000000    8494.13769531
2
Properties=species:S:1:pos:R:3:forces:R:3 energy=391.37483623695425 pbc="F F F"
Th       0.00000000       0.00000000       0.00000000       0.00000000       0.00000000   -4096.55615234
Th       0.00000000       0.00000000       0.47393939       0.00000000       0.00000000    4096.55615234
2
Properties=species:S:1:pos:R:3:forces:R:3 energy=216.97473554161772 pbc="F F F"
Th       0.00000000       0.00000000       0.00000000       0.00000000       0.00000000   -2086.00781250
Th       0.00000000       0.00000000       0.53272727       0.00000000       0.00000000    2086.00781250
2
Properties=species:S:1:pos:R:3:forces:R:3 energy=126.23900253473374 pbc="F F F"
Th       0.00000000       0.00000000       0.00000000       0.00000000       0.00000000   -1113.04772949
Th       0.00000000       0.00000000       0.59151515       0.00000000       0.00000000    1113.04772949
2
Properties=species:S:1:pos:R:3:forces:R:3 energy=76.94488179684468 pbc="F F F"
Th       0.00000000       0.00000000       0.00000000       0.00000000       0.00000000    -617.16009521
Th       0.00000000       0.00000000       0.65030303       0.00000000       0.00000000     617.16009521
2
Properties=species:S:1:pos:R:3:forces:R:3 energy=49.22839397567964 pbc="F F F"
Th       0.00000000       0.00000000       0.00000000       0.00000000       0.00000000    -352.27807617
Th       0.00000000       0.00000000       0.70909091       0.00000000       0.00000000     352.27807617
2
Properties=species:S:1:pos:R:3:forces:R:3 energy=33.25965933583901 pbc="F F F"
Th       0.00000000       0.00000000       0.00000000       0.00000000       0.00000000    -204.83322144
Th       0.00000000       0.00000000       0.76787879       0.00000000       0.00000000     204.83322144
2
Properties=species:S:1:pos:R:3:forces:R:3 energy=23.935850817850525 pbc="F F F"
Th       0.00000000       0.00000000       0.00000000       0.00000000       0.00000000    -119.94013977
Th       0.00000000       0.00000000       0.82666667       0.00000000       0.00000000     119.94013977
2
Properties=species:S:1:pos:R:3:forces:R:3 energy=18.481150575963017 pbc="F F F"
Th       0.00000000       0.00000000       0.00000000       0.00000000       0.00000000     -69.98325348
Th       0.00000000       0.00000000       0.88545455       0.00000000       0.00000000      69.98325348
2
Properties=species:S:1:pos:R:3:forces:R:3 energy=15.307847275947967 pbc="F F F"
Th       0.00000000       0.00000000       0.00000000       0.00000000       0.00000000     -40.63451767
Th       0.00000000       0.00000000       0.94424242       0.00000000       0.00000000      40.63451767
2
Properties=species:S:1:pos:R:3:forces:R:3 energy=13.450103477181546 pbc="F F F"
Th       0.00000000       0.00000000       0.00000000       0.00000000       0.00000000     -24.32913208
Th       0.00000000       0.00000000       1.00303030       0.00000000       0.00000000      24.32913208
2
Properties=species:S:1:pos:R:3:forces:R:3 energy=12.27200726347801 pbc="F F F"
Th       0.00000000       0.00000000       0.00000000       0.00000000       0.00000000     -17.02633476
Th       0.00000000       0.00000000       1.06181818       0.00000000       0.00000000      17.02633476
2
Properties=species:S:1:pos:R:3:forces:R:3 energy=11.317145416479544 pbc="F F F"
Th       0.00000000       0.00000000       0.00000000       0.00000000       0.00000000     -16.43177414
Th       0.00000000       0.00000000       1.12060606       0.00000000       0.00000000      16.43177414
2
Properties=species:S:1:pos:R:3:forces:R:3 energy=10.241314037896695 pbc="F F F"
Th       0.00000000       0.00000000       0.00000000       0.00000000       0.00000000     -20.86907005
Th       0.00000000       0.00000000       1.17939394       0.00000000       0.00000000      20.86907005
2
Properties=species:S:1:pos:R:3:forces:R:3 energy=8.799325406343915 pbc="F F F"
Th       0.00000000       0.00000000       0.00000000       0.00000000       0.00000000     -28.56898308
Th       0.00000000       0.00000000       1.23818182       0.00000000       0.00000000      28.56898308
2
Properties=species:S:1:pos:R:3:forces:R:3 energy=6.858924520486871 pbc="F F F"
Th       0.00000000       0.00000000       0.00000000       0.00000000       0.00000000     -37.44932556
Th       0.00000000       0.00000000       1.29696970       0.00000000       0.00000000      37.44932556
2
Properties=species:S:1:pos:R:3:forces:R:3 energy=4.422431733293826 pbc="F F F"
Th       0.00000000       0.00000000       0.00000000       0.00000000       0.00000000     -44.94989395
Th       0.00000000       0.00000000       1.35575758       0.00000000       0.00000000      44.94989395
2
Properties=species:S:1:pos:R:3:forces:R:3 energy=1.670560348204961 pbc="F F F"
Th       0.00000000       0.00000000       0.00000000       0.00000000       0.00000000     -47.51482010
Th       0.00000000       0.00000000       1.41454545       0.00000000       0.00000000      47.51482010
2
Properties=species:S:1:pos:R:3:forces:R:3 energy=-1.0070964597049228 pbc="F F F"
Th       0.00000000       0.00000000       0.00000000       0.00000000       0.00000000     -42.28240967
Th       0.00000000       0.00000000       1.47333333       0.00000000       0.00000000      42.28240967
2
Properties=species:S:1:pos:R:3:forces:R:3 energy=-3.19145303575585 pbc="F F F"
Th       0.00000000       0.00000000       0.00000000       0.00000000       0.00000000     -31.57124519
Th       0.00000000       0.00000000       1.53212121       0.00000000       0.00000000      31.57124519
2
Properties=species:S:1:pos:R:3:forces:R:3 energy=-4.71065952560432 pbc="F F F"
Th       0.00000000       0.00000000       0.00000000       0.00000000       0.00000000     -20.28429604
Th       0.00000000       0.00000000       1.59090909       0.00000000       0.00000000      20.28429604
2
Properties=species:S:1:pos:R:3:forces:R:3 energy=-5.601722142697407 pbc="F F F"
Th       0.00000000       0.00000000       0.00000000       0.00000000       0.00000000     -10.20748425
Th       0.00000000       0.00000000       1.64969697       0.00000000       0.00000000      10.20748425
2
Properties=species:S:1:pos:R:3:forces:R:3 energy=-5.924118528399671 pbc="F F F"
Th       0.00000000       0.00000000       0.00000000       0.00000000       0.00000000      -0.85876858
Th       0.00000000       0.00000000       1.70848485       0.00000000       0.00000000       0.85876858
2
Properties=species:S:1:pos:R:3:forces:R:3 energy=-5.7281858072474945 pbc="F F F"
Th       0.00000000       0.00000000       0.00000000       0.00000000       0.00000000       7.11227131
Th       0.00000000       0.00000000       1.76727273       0.00000000       0.00000000      -7.11227131
2
Properties=species:S:1:pos:R:3:forces:R:3 energy=-5.15961321327238 pbc="F F F"
Th       0.00000000       0.00000000       0.00000000       0.00000000       0.00000000      11.49680996
Th       0.00000000       0.00000000       1.82606061       0.00000000       0.00000000     -11.49680996
2
Properties=species:S:1:pos:R:3:forces:R:3 energy=-4.46034530827761 pbc="F F F"
Th       0.00000000       0.00000000       0.00000000       0.00000000       0.00000000      11.67737579
Th       0.00000000       0.00000000       1.88484848       0.00000000       0.00000000     -11.67737579
2
Properties=species:S:1:pos:R:3:forces:R:3 energy=-3.840666523425254 pbc="F F F"
Th       0.00000000       0.00000000       0.00000000       0.00000000       0.00000000       9.10597324
Th       0.00000000       0.00000000       1.94363636       0.00000000       0.00000000      -9.10597324
2
Properties=species:S:1:pos:R:3:forces:R:3 energy=-3.4078481752143968 pbc="F F F"
Th       0.00000000       0.00000000       0.00000000       0.00000000       0.00000000       5.59001875
Th       0.00000000       0.00000000       2.00242424       0.00000000       0.00000000      -5.59001875
2
Properties=species:S:1:pos:R:3:forces:R:3 energy=-3.175781154284309 pbc="F F F"
Th       0.00000000       0.00000000       0.00000000       0.00000000       0.00000000       2.43983173
Th       0.00000000       0.00000000       2.06121212       0.00000000       0.00000000      -2.43983173
2
Properties=species:S:1:pos:R:3:forces:R:3 energy=-3.1014522230591997 pbc="F F F"
Th       0.00000000       0.00000000       0.00000000       0.00000000       0.00000000       0.26196545
Th       0.00000000       0.00000000       2.12000000       0.00000000       0.00000000      -0.26196545
2
Properties=species:S:1:pos:R:3:forces:R:3 energy=-3.126918773349363 pbc="F F F"
Th       0.00000000       0.00000000       0.00000000       0.00000000       0.00000000      -1.00289261
Th       0.00000000       0.00000000       2.17878788       0.00000000       0.00000000       1.00289261
2
Properties=species:S:1:pos:R:3:forces:R:3 energy=-3.2081508620586994 pbc="F F F"
Th       0.00000000       0.00000000       0.00000000       0.00000000       0.00000000      -1.69155157
Th       0.00000000       0.00000000       2.23757576       0.00000000       0.00000000       1.69155157
2
Properties=species:S:1:pos:R:3:forces:R:3 energy=-3.3198486463088828 pbc="F F F"
Th       0.00000000       0.00000000       0.00000000       0.00000000       0.00000000      -2.07131267
Th       0.00000000       0.00000000       2.29636364       0.00000000       0.00000000       2.07131267
2
Properties=species:S:1:pos:R:3:forces:R:3 energy=-3.4482195052567715 pbc="F F F"
Th       0.00000000       0.00000000       0.00000000       0.00000000       0.00000000      -2.27167678
Th       0.00000000       0.00000000       2.35515152       0.00000000       0.00000000       2.27167678
2
Properties=species:S:1:pos:R:3:forces:R:3 energy=-3.584444881518576 pbc="F F F"
Th       0.00000000       0.00000000       0.00000000       0.00000000       0.00000000      -2.34380364
Th       0.00000000       0.00000000       2.41393939       0.00000000       0.00000000       2.34380364
2
Properties=species:S:1:pos:R:3:forces:R:3 energy=-3.721776104457823 pbc="F F F"
Th       0.00000000       0.00000000       0.00000000       0.00000000       0.00000000      -2.31283069
Th       0.00000000       0.00000000       2.47272727       0.00000000       0.00000000       2.31283069
2
Properties=species:S:1:pos:R:3:forces:R:3 energy=-3.8547376206365773 pbc="F F F"
Th       0.00000000       0.00000000       0.00000000       0.00000000       0.00000000      -2.19814682
Th       0.00000000       0.00000000       2.53151515       0.00000000       0.00000000       2.19814682
2
Properties=species:S:1:pos:R:3:forces:R:3 energy=-3.978921903152257 pbc="F F F"
Th       0.00000000       0.00000000       0.00000000       0.00000000       0.00000000      -2.01687551
Th       0.00000000       0.00000000       2.59030303       0.00000000       0.00000000       2.01687551
2
Properties=species:S:1:pos:R:3:forces:R:3 energy=-4.090859275093447 pbc="F F F"
Th       0.00000000       0.00000000       0.00000000       0.00000000       0.00000000      -1.78383791
Th       0.00000000       0.00000000       2.64909091       0.00000000       0.00000000       1.78383791
2
Properties=species:S:1:pos:R:3:forces:R:3 energy=-4.187912566541798 pbc="F F F"
Th       0.00000000       0.00000000       0.00000000       0.00000000       0.00000000      -1.51279771
Th       0.00000000       0.00000000       2.70787879       0.00000000       0.00000000       1.51279771
2
Properties=species:S:1:pos:R:3:forces:R:3 energy=-4.268273249189614 pbc="F F F"
Th       0.00000000       0.00000000       0.00000000       0.00000000       0.00000000      -1.21859360
Th       0.00000000       0.00000000       2.76666667       0.00000000       0.00000000       1.21859360
2
Properties=species:S:1:pos:R:3:forces:R:3 energy=-4.331065901691352 pbc="F F F"
Th       0.00000000       0.00000000       0.00000000       0.00000000       0.00000000      -0.91812944
Th       0.00000000       0.00000000       2.82545455       0.00000000       0.00000000       0.91812944
2
Properties=species:S:1:pos:R:3:forces:R:3 energy=-4.376436173448037 pbc="F F F"
Th       0.00000000       0.00000000       0.00000000       0.00000000       0.00000000      -0.62847084
Th       0.00000000       0.00000000       2.88424242       0.00000000       0.00000000       0.62847084
2
Properties=species:S:1:pos:R:3:forces:R:3 energy=-4.405432214545706 pbc="F F F"
Th       0.00000000       0.00000000       0.00000000       0.00000000       0.00000000      -0.36267090
Th       0.00000000       0.00000000       2.94303030       0.00000000       0.00000000       0.36267090
2
Properties=species:S:1:pos:R:3:forces:R:3 energy=-4.4196538123059925 pbc="F F F"
Th       0.00000000       0.00000000       0.00000000       0.00000000       0.00000000      -0.12595871
Th       0.00000000       0.00000000       3.00181818       0.00000000       0.00000000       0.12595871
2
Properties=species:S:1:pos:R:3:forces:R:3 energy=-4.42075408378452 pbc="F F F"
Th       0.00000000       0.00000000       0.00000000       0.00000000       0.00000000       0.08477645
Th       0.00000000       0.00000000       3.06060606       0.00000000       0.00000000      -0.08477645
2
Properties=species:S:1:pos:R:3:forces:R:3 energy=-4.410036999866798 pbc="F F F"
Th       0.00000000       0.00000000       0.00000000       0.00000000       0.00000000       0.27759263
Th       0.00000000       0.00000000       3.11939394       0.00000000       0.00000000      -0.27759263
2
Properties=species:S:1:pos:R:3:forces:R:3 energy=-4.388314283435606 pbc="F F F"
Th       0.00000000       0.00000000       0.00000000       0.00000000       0.00000000       0.46010065
Th       0.00000000       0.00000000       3.17818182       0.00000000       0.00000000      -0.46010065
2
Properties=species:S:1:pos:R:3:forces:R:3 energy=-4.356076218443941 pbc="F F F"
Th       0.00000000       0.00000000       0.00000000       0.00000000       0.00000000       0.63552970
Th       0.00000000       0.00000000       3.23696970       0.00000000       0.00000000      -0.63552970
2
Properties=species:S:1:pos:R:3:forces:R:3 energy=-4.313753808981719 pbc="F F F"
Th       0.00000000       0.00000000       0.00000000       0.00000000       0.00000000       0.80268055
Th       0.00000000       0.00000000       3.29575758       0.00000000       0.00000000      -0.80268055
2
Properties=species:S:1:pos:R:3:forces:R:3 energy=-4.261909640851945 pbc="F F F"
Th       0.00000000       0.00000000       0.00000000       0.00000000       0.00000000       0.95919150
Th       0.00000000       0.00000000       3.35454545       0.00000000       0.00000000      -0.95919150
2
Properties=species:S:1:pos:R:3:forces:R:3 energy=-4.2011880624230615 pbc="F F F"
Th       0.00000000       0.00000000       0.00000000       0.00000000       0.00000000       1.10499954
Th       0.00000000       0.00000000       3.41333333       0.00000000       0.00000000      -1.10499954
2
Properties=species:S:1:pos:R:3:forces:R:3 energy=-4.132140514845393 pbc="F F F"
Th       0.00000000       0.00000000       0.00000000       0.00000000       0.00000000       1.24308825
Th       0.00000000       0.00000000       3.47212121       0.00000000       0.00000000      -1.24308825
2
Properties=species:S:1:pos:R:3:forces:R:3 energy=-4.0551085778985945 pbc="F F F"
Th       0.00000000       0.00000000       0.00000000       0.00000000       0.00000000       1.37714434
Th       0.00000000       0.00000000       3.53090909       0.00000000       0.00000000      -1.37714434
2
Properties=species:S:1:pos:R:3:forces:R:3 energy=-3.9702806042436944 pbc="F F F"
Th       0.00000000       0.00000000       0.00000000       0.00000000       0.00000000       1.50800180
Th       0.00000000       0.00000000       3.58969697       0.00000000       0.00000000      -1.50800180
2
Properties=species:S:1:pos:R:3:forces:R:3 energy=-3.8779472511188255 pbc="F F F"
Th       0.00000000       0.00000000       0.00000000       0.00000000       0.00000000       1.63137484
Th       0.00000000       0.00000000       3.64848485       0.00000000       0.00000000      -1.63137484
2
Properties=species:S:1:pos:R:3:forces:R:3 energy=-3.778791889175767 pbc="F F F"
Th       0.00000000       0.00000000       0.00000000       0.00000000       0.00000000       1.73834801
Th       0.00000000       0.00000000       3.70727273       0.00000000       0.00000000      -1.73834801
2
Properties=species:S:1:pos:R:3:forces:R:3 energy=-3.6740864558390807 pbc="F F F"
Th       0.00000000       0.00000000       0.00000000       0.00000000       0.00000000       1.81844831
Th       0.00000000       0.00000000       3.76606061       0.00000000       0.00000000      -1.81844831
2
Properties=species:S:1:pos:R:3:forces:R:3 energy=-3.5656743905387223 pbc="F F F"
Th       0.00000000       0.00000000       0.00000000       0.00000000       0.00000000       1.86361253
Th       0.00000000       0.00000000       3.82484848       0.00000000       0.00000000      -1.86361253
2
Properties=species:S:1:pos:R:3:forces:R:3 energy=-3.4557161533871223 pbc="F F F"
Th       0.00000000       0.00000000       0.00000000       0.00000000       0.00000000       1.87092531
Th       0.00000000       0.00000000       3.88363636       0.00000000       0.00000000      -1.87092531
2
Properties=species:S:1:pos:R:3:forces:R:3 energy=-3.3463923330276635 pbc="F F F"
Th       0.00000000       0.00000000       0.00000000       0.00000000       0.00000000       1.84293652
Th       0.00000000       0.00000000       3.94242424       0.00000000       0.00000000      -1.84293652
2
Properties=species:S:1:pos:R:3:forces:R:3 energy=-3.2396030871695514 pbc="F F F"
Th       0.00000000       0.00000000       0.00000000       0.00000000       0.00000000       1.78593719
Th       0.00000000       0.00000000       4.00121212       0.00000000       0.00000000      -1.78593719
2
Properties=species:S:1:pos:R:3:forces:R:3 energy=-3.1368276150103176 pbc="F F F"
Th       0.00000000       0.00000000       0.00000000       0.00000000       0.00000000       1.70763099
Th       0.00000000       0.00000000       4.06000000       0.00000000       0.00000000      -1.70763099
2
Properties=species:S:1:pos:R:3:forces:R:3 energy=-3.0391003027066223 pbc="F F F"
Th       0.00000000       0.00000000       0.00000000       0.00000000       0.00000000       1.61540437
Th       0.00000000       0.00000000       4.11878788       0.00000000       0.00000000      -1.61540437
2
Properties=species:S:1:pos:R:3:forces:R:3 energy=-2.94704435940084 pbc="F F F"
Th       0.00000000       0.00000000       0.00000000       0.00000000       0.00000000       1.51549566
Th       0.00000000       0.00000000       4.17757576       0.00000000       0.00000000      -1.51549566
2
Properties=species:S:1:pos:R:3:forces:R:3 energy=-2.860963264585386 pbc="F F F"
Th       0.00000000       0.00000000       0.00000000       0.00000000       0.00000000       1.41294873
Th       0.00000000       0.00000000       4.23636364       0.00000000       0.00000000      -1.41294873
2
Properties=species:S:1:pos:R:3:forces:R:3 energy=-2.7808876415281327 pbc="F F F"
Th       0.00000000       0.00000000       0.00000000       0.00000000       0.00000000       1.31174159
Th       0.00000000       0.00000000       4.29515152       0.00000000       0.00000000      -1.31174159
2
Properties=species:S:1:pos:R:3:forces:R:3 energy=-2.706647694506855 pbc="F F F"
Th       0.00000000       0.00000000       0.00000000       0.00000000       0.00000000       1.21498632
Th       0.00000000       0.00000000       4.35393939       0.00000000       0.00000000      -1.21498632
2
Properties=species:S:1:pos:R:3:forces:R:3 energy=-2.637903599674464 pbc="F F F"
Th       0.00000000       0.00000000       0.00000000       0.00000000       0.00000000       1.12498999
Th       0.00000000       0.00000000       4.41272727       0.00000000       0.00000000      -1.12498999
2
Properties=species:S:1:pos:R:3:forces:R:3 energy=-2.5742100808159867 pbc="F F F"
Th       0.00000000       0.00000000       0.00000000       0.00000000       0.00000000       1.04337597
Th       0.00000000       0.00000000       4.47151515       0.00000000       0.00000000      -1.04337597
2
Properties=species:S:1:pos:R:3:forces:R:3 energy=-2.5150432936272034 pbc="F F F"
Th       0.00000000       0.00000000       0.00000000       0.00000000       0.00000000       0.97109479
Th       0.00000000       0.00000000       4.53030303       0.00000000       0.00000000      -0.97109479
2
Properties=species:S:1:pos:R:3:forces:R:3 energy=-2.459843559661105 pbc="F F F"
Th       0.00000000       0.00000000       0.00000000       0.00000000       0.00000000       0.90847135
Th       0.00000000       0.00000000       4.58909091       0.00000000       0.00000000      -0.90847135
2
Properties=species:S:1:pos:R:3:forces:R:3 energy=-2.4080479052962493 pbc="F F F"
Th       0.00000000       0.00000000       0.00000000       0.00000000       0.00000000       0.85515958
Th       0.00000000       0.00000000       4.64787879       0.00000000       0.00000000      -0.85515958
2
Properties=species:S:1:pos:R:3:forces:R:3 energy=-2.3591345699833224 pbc="F F F"
Th       0.00000000       0.00000000       0.00000000       0.00000000       0.00000000       0.81010044
Th       0.00000000       0.00000000       4.70666667       0.00000000       0.00000000      -0.81010044
2
Properties=species:S:1:pos:R:3:forces:R:3 energy=-2.312671519258291 pbc="F F F"
Th       0.00000000       0.00000000       0.00000000       0.00000000       0.00000000       0.77156174
Th       0.00000000       0.00000000       4.76545455       0.00000000       0.00000000      -0.77156174
2
Properties=species:S:1:pos:R:3:forces:R:3 energy=-2.2683324061159156 pbc="F F F"
Th       0.00000000       0.00000000       0.00000000       0.00000000       0.00000000       0.73729074
Th       0.00000000       0.00000000       4.82424242       0.00000000       0.00000000      -0.73729074
2
Properties=species:S:1:pos:R:3:forces:R:3 energy=-2.225950272210846 pbc="F F F"
Th       0.00000000       0.00000000       0.00000000       0.00000000       0.00000000       0.70483029
Th       0.00000000       0.00000000       4.88303030       0.00000000       0.00000000      -0.70483029
2
Properties=species:S:1:pos:R:3:forces:R:3 energy=-2.18547242338973 pbc="F F F"
Th       0.00000000       0.00000000       0.00000000       0.00000000       0.00000000       0.67190397
Th       0.00000000       0.00000000       4.94181818       0.00000000       0.00000000      -0.67190397
2
Properties=species:S:1:pos:R:3:forces:R:3 energy=-2.1469916878676494 pbc="F F F"
Th       0.00000000       0.00000000       0.00000000       0.00000000       0.00000000       0.63679743
Th       0.00000000       0.00000000       5.00060606       0.00000000       0.00000000      -0.63679743
2
Properties=species:S:1:pos:R:3:forces:R:3 energy=-2.1106613324736054 pbc="F F F"
Th       0.00000000       0.00000000       0.00000000       0.00000000       0.00000000       0.59852970
Th       0.00000000       0.00000000       5.05939394       0.00000000       0.00000000      -0.59852970
2
Properties=species:S:1:pos:R:3:forces:R:3 energy=-2.0766854372083343 pbc="F F F"
Th       0.00000000       0.00000000       0.00000000       0.00000000       0.00000000       0.55687690
Th       0.00000000       0.00000000       5.11818182       0.00000000       0.00000000      -0.55687690
2
Properties=species:S:1:pos:R:3:forces:R:3 energy=-2.045247833836444 pbc="F F F"
Th       0.00000000       0.00000000       0.00000000       0.00000000       0.00000000       0.51219863
Th       0.00000000       0.00000000       5.17696970       0.00000000       0.00000000      -0.51219863
2
Properties=species:S:1:pos:R:3:forces:R:3 energy=-2.016509081304667 pbc="F F F"
Th       0.00000000       0.00000000       0.00000000       0.00000000       0.00000000       0.46524423
Th       0.00000000       0.00000000       5.23575758       0.00000000       0.00000000      -0.46524423
2
Properties=species:S:1:pos:R:3:forces:R:3 energy=-1.9905733243914145 pbc="F F F"
Th       0.00000000       0.00000000       0.00000000       0.00000000       0.00000000       0.41694859
Th       0.00000000       0.00000000       5.29454545       0.00000000       0.00000000      -0.41694859
2
Properties=species:S:1:pos:R:3:forces:R:3 energy=-1.967491669580746 pbc="F F F"
Th       0.00000000       0.00000000       0.00000000       0.00000000       0.00000000       0.36830771
Th       0.00000000       0.00000000       5.35333333       0.00000000       0.00000000      -0.36830771
2
Properties=species:S:1:pos:R:3:forces:R:3 energy=-1.9472574408654164 pbc="F F F"
Th       0.00000000       0.00000000       0.00000000       0.00000000       0.00000000       0.32030654
Th       0.00000000       0.00000000       5.41212121       0.00000000       0.00000000      -0.32030654
2
Properties=species:S:1:pos:R:3:forces:R:3 energy=-1.9298013215083183 pbc="F F F"
Th       0.00000000       0.00000000       0.00000000       0.00000000       0.00000000       0.27384242
Th       0.00000000       0.00000000       5.47090909       0.00000000       0.00000000      -0.27384242
2
Properties=species:S:1:pos:R:3:forces:R:3 energy=-1.9150114192169951 pbc="F F F"
Th       0.00000000       0.00000000       0.00000000       0.00000000       0.00000000       0.22975071
Th       0.00000000       0.00000000       5.52969697       0.00000000       0.00000000      -0.22975071
2
Properties=species:S:1:pos:R:3:forces:R:3 energy=-1.9027279512428112 pbc="F F F"
Th       0.00000000       0.00000000       0.00000000       0.00000000       0.00000000       0.18872987
Th       0.00000000       0.00000000       5.58848485       0.00000000       0.00000000      -0.18872987
2
Properties=species:S:1:pos:R:3:forces:R:3 energy=-1.892753827497195 pbc="F F F"
Th       0.00000000       0.00000000       0.00000000       0.00000000       0.00000000       0.15142275
Th       0.00000000       0.00000000       5.64727273       0.00000000       0.00000000      -0.15142275
2
Properties=species:S:1:pos:R:3:forces:R:3 energy=-1.8848444100560717 pbc="F F F"
Th       0.00000000       0.00000000       0.00000000       0.00000000       0.00000000       0.11833923
Th       0.00000000       0.00000000       5.70606061       0.00000000       0.00000000      -0.11833923
2
Properties=species:S:1:pos:R:3:forces:R:3 energy=-1.878737359831763 pbc="F F F"
Th       0.00000000       0.00000000       0.00000000       0.00000000       0.00000000       0.09000163
Th       0.00000000       0.00000000       5.76484848       0.00000000       0.00000000      -0.09000163
2
Properties=species:S:1:pos:R:3:forces:R:3 energy=-1.8741533316538384 pbc="F F F"
Th       0.00000000       0.00000000       0.00000000       0.00000000       0.00000000       0.06691188
Th       0.00000000       0.00000000       5.82363636       0.00000000       0.00000000      -0.06691188
2
Properties=species:S:1:pos:R:3:forces:R:3 energy=-1.8707640503541412 pbc="F F F"
Th       0.00000000       0.00000000       0.00000000       0.00000000       0.00000000       0.04956054
Th       0.00000000       0.00000000       5.88242424       0.00000000       0.00000000      -0.04956054
2
Properties=species:S:1:pos:R:3:forces:R:3 energy=-1.8682054934807257 pbc="F F F"
Th       0.00000000       0.00000000       0.00000000       0.00000000       0.00000000       0.03846846
Th       0.00000000       0.00000000       5.94121212       0.00000000       0.00000000      -0.03846846
2
Properties=species:S:1:pos:R:3:forces:R:3 energy=-1.8661054021332155 pbc="F F F"
Th       0.00000000       0.00000000       0.00000000       0.00000000       0.00000000       0.03418691
Th       0.00000000       0.00000000       6.00000000       0.00000000       0.00000000      -0.03418691
