2
Properties=species:S:1:pos:R:3:forces:R:3 energy=17633.872830847104 pbc="F F F"
Tl       0.00000000       0.00000000       0.00000000       0.00000000       0.00000000 -311968.25000000
Tl       0.00000000       0.00000000       0.18000000       0.00000000       0.00000000  311968.25000000
2
Properties=species:S:1:pos:R:3:forces:R:3 energy=6781.1926550658545 pbc="F F F"
Tl       0.00000000       0.00000000       0.00000000       0.00000000       0.00000000 -102007.95312500
Tl       0.00000000       0.00000000       0.23878788       0.00000000       0.00000000  102007.95312500
2
Properties=species:S:1:pos:R:3:forces:R:3 energy=2958.8335242064795 pbc="F F F"
Tl       0.00000000       0.00000000       0.00000000       0.00000000       0.00000000  -39212.87109375
Tl       0.00000000       0.00000000       0.29757576       0.00000000       0.00000000   39212.87109375
2
Properties=species:S:1:pos:R:3:forces:R:3 energy=1420.0530066283548 pbc="F F F"
Tl       0.00000000       0.00000000       0.00000000       0.00000000       0.00000000  -16671.91796875
Tl       0.00000000       0.00000000       0.35636364       0.00000000       0.00000000   16671.91796875
2
Properties=species:S:1:pos:R:3:forces:R:3 energy=743.9341101471475 pbc="F F F"
Tl       0.00000000       0.00000000       0.00000000       0.00000000       0.00000000   -7620.13671875
Tl       0.00000000       0.00000000       0.41515152       0.00000000       0.00000000    7620.13671875
2
Properties=species:S:1:pos:R:3:forces:R:3 energy=426.8154272889873 pbc="F F F"
Tl       0.00000000       0.00000000       0.00000000       0.00000000       0.00000000   -3685.32739258
Tl       0.00000000       0.00000000       0.47393939       0.00000000       0.00000000    3685.32739258
2
Properties=species:S:1:pos:R:3:forces:R:3 energy=270.34652470743225 pbc="F F F"
Tl       0.00000000       0.00000000       0.00000000       0.00000000       0.00000000   -1859.63208008
Tl       0.00000000       0.00000000       0.53272727       0.00000000       0.00000000    1859.63208008
2
Properties=species:S:1:pos:R:3:forces:R:3 energy=190.3978858104236 pbc="F F F"
Tl       0.00000000       0.00000000       0.00000000       0.00000000       0.00000000    -961.30639648
Tl       0.00000000       0.00000000       0.59151515       0.00000000       0.00000000     961.30639648
2
Properties=species:S:1:pos:R:3:forces:R:3 energy=148.9890113240474 pbc="F F F"
Tl       0.00000000       0.00000000       0.00000000       0.00000000       0.00000000    -496.57980347
Tl       0.00000000       0.00000000       0.65030303       0.00000000       0.00000000     496.57980347
2
Properties=species:S:1:pos:R:3:forces:R:3 energy=127.803762033448 pbc="F F F"
Tl       0.00000000       0.00000000       0.00000000       0.00000000       0.00000000    -250.24092102
Tl       0.00000000       0.00000000       0.70909091       0.00000000       0.00000000     250.24092102
2
Properties=species:S:1:pos:R:3:forces:R:3 energy=117.2159477594141 pbc="F F F"
Tl       0.00000000       0.00000000       0.00000000       0.00000000       0.00000000    -125.39794159
Tl       0.00000000       0.00000000       0.76787879       0.00000000       0.00000000     125.39794159
2
Properties=species:S:1:pos:R:3:forces:R:3 energy=111.61288998044935 pbc="F F F"
Tl       0.00000000       0.00000000       0.00000000       0.00000000       0.00000000     -74.94202423
Tl       0.00000000       0.00000000       0.82666667       0.00000000       0.00000000      74.94202423
2
Properties=species:S:1:pos:R:3:forces:R:3 energy=107.5150049753263 pbc="F F F"
Tl       0.00000000       0.00000000       0.00000000       0.00000000       0.00000000     -70.05071259
Tl       0.00000000       0.00000000       0.88545455       0.00000000       0.00000000      70.05071259
2
Properties=species:S:1:pos:R:3:forces:R:3 energy=102.9234524120137 pbc="F F F"
Tl       0.00000000       0.00000000       0.00000000       0.00000000       0.00000000     -88.51760864
Tl       0.00000000       0.00000000       0.94424242       0.00000000       0.00000000      88.51760864
2
Properties=species:S:1:pos:R:3:forces:R:3 energy=96.95036152094426 pbc="F F F"
Tl       0.00000000       0.00000000       0.00000000       0.00000000       0.00000000    -115.34178925
Tl       0.00000000       0.00000000       1.00303030       0.00000000       0.00000000     115.34178925
2
Properties=species:S:1:pos:R:3:forces:R:3 energy=89.32184469318321 pbc="F F F"
Tl       0.00000000       0.00000000       0.00000000       0.00000000       0.00000000    -144.31523132
Tl       0.00000000       0.00000000       1.06181818       0.00000000       0.00000000     144.31523132
2
Properties=species:S:1:pos:R:3:forces:R:3 energy=80.00760561571826 pbc="F F F"
Tl       0.00000000       0.00000000       0.00000000       0.00000000       0.00000000    -171.79254150
Tl       0.00000000       0.00000000       1.12060606       0.00000000       0.00000000     171.79254150
2
Properties=species:S:1:pos:R:3:forces:R:3 energy=69.3086544457279 pbc="F F F"
Tl       0.00000000       0.00000000       0.00000000       0.00000000       0.00000000    -189.80316162
Tl       0.00000000       0.00000000       1.17939394       0.00000000       0.00000000     189.80316162
2
Properties=species:S:1:pos:R:3:forces:R:3 energy=58.030098344260885 pbc="F F F"
Tl       0.00000000       0.00000000       0.00000000       0.00000000       0.00000000    -190.87565613
Tl       0.00000000       0.00000000       1.23818182       0.00000000       0.00000000     190.87565613
2
Properties=species:S:1:pos:R:3:forces:R:3 energy=47.17772423241173 pbc="F F F"
Tl       0.00000000       0.00000000       0.00000000       0.00000000       0.00000000    -176.28002930
Tl       0.00000000       0.00000000       1.29696970       0.00000000       0.00000000     176.28002930
2
Properties=species:S:1:pos:R:3:forces:R:3 energy=37.46404512450065 pbc="F F F"
Tl       0.00000000       0.00000000       0.00000000       0.00000000       0.00000000    -153.43608093
Tl       0.00000000       0.00000000       1.35575758       0.00000000       0.00000000     153.43608093
2
Properties=species:S:1:pos:R:3:forces:R:3 energy=29.17367754788536 pbc="F F F"
Tl       0.00000000       0.00000000       0.00000000       0.00000000       0.00000000    -128.64375305
Tl       0.00000000       0.00000000       1.41454545       0.00000000       0.00000000     128.64375305
2
Properties=species:S:1:pos:R:3:forces:R:3 energy=22.30646133596586 pbc="F F F"
Tl       0.00000000       0.00000000       0.00000000       0.00000000       0.00000000    -105.41614532
Tl       0.00000000       0.00000000       1.47333333       0.00000000       0.00000000     105.41614532
2
Properties=species:S:1:pos:R:3:forces:R:3 energy=16.722236954668464 pbc="F F F"
Tl       0.00000000       0.00000000       0.00000000       0.00000000       0.00000000     -85.06556702
Tl       0.00000000       0.00000000       1.53212121       0.00000000       0.00000000      85.06556702
2
Properties=species:S:1:pos:R:3:forces:R:3 energy=12.245465466465092 pbc="F F F"
Tl       0.00000000       0.00000000       0.00000000       0.00000000       0.00000000     -67.72951508
Tl       0.00000000       0.00000000       1.59090909       0.00000000       0.00000000      67.72951508
2
Properties=species:S:1:pos:R:3:forces:R:3 energy=8.706281342335965 pbc="F F F"
Tl       0.00000000       0.00000000       0.00000000       0.00000000       0.00000000     -53.06715393
Tl       0.00000000       0.00000000       1.64969697       0.00000000       0.00000000      53.06715393
2
Properties=species:S:1:pos:R:3:forces:R:3 energy=5.96550450340857 pbc="F F F"
Tl       0.00000000       0.00000000       0.00000000       0.00000000       0.00000000     -40.49319077
Tl       0.00000000       0.00000000       1.70848485       0.00000000       0.00000000      40.49319077
2
Properties=species:S:1:pos:R:3:forces:R:3 energy=3.9075337752025563 pbc="F F F"
Tl       0.00000000       0.00000000       0.00000000       0.00000000       0.00000000     -29.85797310
Tl       0.00000000       0.00000000       1.76727273       0.00000000       0.00000000      29.85797310
2
Properties=species:S:1:pos:R:3:forces:R:3 energy=2.4127167462310797 pbc="F F F"
Tl       0.00000000       0.00000000       0.00000000       0.00000000       0.00000000     -21.37094879
Tl       0.00000000       0.00000000       1.82606061       0.00000000       0.00000000      21.37094879
2
Properties=species:S:1:pos:R:3:forces:R:3 energy=1.3509483336900556 pbc="F F F"
Tl       0.00000000       0.00000000       0.00000000       0.00000000       0.00000000     -15.11069679
Tl       0.00000000       0.00000000       1.88484848       0.00000000       0.00000000      15.11069679
2
Properties=species:S:1:pos:R:3:forces:R:3 energy=0.5971800833390566 pbc="F F F"
Tl       0.00000000       0.00000000       0.00000000       0.00000000       0.00000000     -10.82728672
Tl       0.00000000       0.00000000       1.94363636       0.00000000       0.00000000      10.82728672
2
Properties=species:S:1:pos:R:3:forces:R:3 energy=0.04830296055460041 pbc="F F F"
Tl       0.00000000       0.00000000       0.00000000       0.00000000       0.00000000      -8.05448532
Tl       0.00000000       0.00000000       2.00242424       0.00000000       0.00000000       8.05448532
2
Properties=species:S:1:pos:R:3:forces:R:3 energy=-0.3695150711439041 pbc="F F F"
Tl       0.00000000       0.00000000       0.00000000       0.00000000       0.00000000      -6.28971577
Tl       0.00000000       0.00000000       2.06121212       0.00000000       0.00000000       6.28971577
2
Properties=species:S:1:pos:R:3:forces:R:3 energy=-0.7028596763875005 pbc="F F F"
Tl       0.00000000       0.00000000       0.00000000       0.00000000       0.00000000      -5.12451792
Tl       0.00000000       0.00000000       2.12000000       0.00000000       0.00000000       5.12451792
2
Properties=species:S:1:pos:R:3:forces:R:3 energy=-0.9786184237352173 pbc="F F F"
Tl       0.00000000       0.00000000       0.00000000       0.00000000       0.00000000      -4.29969120
Tl       0.00000000       0.00000000       2.17878788       0.00000000       0.00000000       4.29969120
2
Properties=species:S:1:pos:R:3:forces:R:3 energy=-1.2124607479897298 pbc="F F F"
Tl       0.00000000       0.00000000       0.00000000       0.00000000       0.00000000      -3.68428516
Tl       0.00000000       0.00000000       2.23757576       0.00000000       0.00000000       3.68428516
2
Properties=species:S:1:pos:R:3:forces:R:3 energy=-1.4146731668932682 pbc="F F F"
Tl       0.00000000       0.00000000       0.00000000       0.00000000       0.00000000      -3.21594882
Tl       0.00000000       0.00000000       2.29636364       0.00000000       0.00000000       3.21594882
2
Properties=species:S:1:pos:R:3:forces:R:3 energy=-1.5926332689435558 pbc="F F F"
Tl       0.00000000       0.00000000       0.00000000       0.00000000       0.00000000      -2.85257816
Tl       0.00000000       0.00000000       2.35515152       0.00000000       0.00000000       2.85257816
2
Properties=species:S:1:pos:R:3:forces:R:3 energy=-1.7513250436491994 pbc="F F F"
Tl       0.00000000       0.00000000       0.00000000       0.00000000       0.00000000      -2.55348420
Tl       0.00000000       0.00000000       2.41393939       0.00000000       0.00000000       2.55348420
2
Properties=species:S:1:pos:R:3:forces:R:3 energy=-1.8933614742739067 pbc="F F F"
Tl       0.00000000       0.00000000       0.00000000       0.00000000       0.00000000      -2.28013158
Tl       0.00000000       0.00000000       2.47272727       0.00000000       0.00000000       2.28013158
2
Properties=species:S:1:pos:R:3:forces:R:3 energy=-2.0193183471899334 pbc="F F F"
Tl       0.00000000       0.00000000       0.00000000       0.00000000       0.00000000      -2.00241017
Tl       0.00000000       0.00000000       2.53151515       0.00000000       0.00000000       2.00241017
2
Properties=species:S:1:pos:R:3:forces:R:3 energy=-2.1283635450463367 pbc="F F F"
Tl       0.00000000       0.00000000       0.00000000       0.00000000       0.00000000      -1.70303559
Tl       0.00000000       0.00000000       2.59030303       0.00000000       0.00000000       1.70303559
2
Properties=species:S:1:pos:R:3:forces:R:3 energy=-2.219043465284445 pbc="F F F"
Tl       0.00000000       0.00000000       0.00000000       0.00000000       0.00000000      -1.37795436
Tl       0.00000000       0.00000000       2.64909091       0.00000000       0.00000000       1.37795436
2
Properties=species:S:1:pos:R:3:forces:R:3 energy=-2.2899960794228003 pbc="F F F"
Tl       0.00000000       0.00000000       0.00000000       0.00000000       0.00000000      -1.03362644
Tl       0.00000000       0.00000000       2.70787879       0.00000000       0.00000000       1.03362644
2
Properties=species:S:1:pos:R:3:forces:R:3 energy=-2.340448385918855 pbc="F F F"
Tl       0.00000000       0.00000000       0.00000000       0.00000000       0.00000000      -0.68302858
Tl       0.00000000       0.00000000       2.76666667       0.00000000       0.00000000       0.68302858
2
Properties=species:S:1:pos:R:3:forces:R:3 energy=-2.3704905155072087 pbc="F F F"
Tl       0.00000000       0.00000000       0.00000000       0.00000000       0.00000000      -0.34197745
Tl       0.00000000       0.00000000       2.82545455       0.00000000       0.00000000       0.34197745
2
Properties=species:S:1:pos:R:3:forces:R:3 energy=-2.38115897662551 pbc="F F F"
Tl       0.00000000       0.00000000       0.00000000       0.00000000       0.00000000      -0.02648707
Tl       0.00000000       0.00000000       2.88424242       0.00000000       0.00000000       0.02648707
2
Properties=species:S:1:pos:R:3:forces:R:3 energy=-2.3743887286082512 pbc="F F F"
Tl       0.00000000       0.00000000       0.00000000       0.00000000       0.00000000       0.24911313
Tl       0.00000000       0.00000000       2.94303030       0.00000000       0.00000000      -0.24911313
2
Properties=species:S:1:pos:R:3:forces:R:3 energy=-2.3528684609371844 pbc="F F F"
Tl       0.00000000       0.00000000       0.00000000       0.00000000       0.00000000       0.47388977
Tl       0.00000000       0.00000000       3.00181818       0.00000000       0.00000000      -0.47388977
2
Properties=species:S:1:pos:R:3:forces:R:3 energy=-2.319783482978386 pbc="F F F"
Tl       0.00000000       0.00000000       0.00000000       0.00000000       0.00000000       0.64213371
Tl       0.00000000       0.00000000       3.06060606       0.00000000       0.00000000      -0.64213371
2
Properties=species:S:1:pos:R:3:forces:R:3 energy=-2.2784668264062558 pbc="F F F"
Tl       0.00000000       0.00000000       0.00000000       0.00000000       0.00000000       0.75459808
Tl       0.00000000       0.00000000       3.11939394       0.00000000       0.00000000      -0.75459808
2
Properties=species:S:1:pos:R:3:forces:R:3 energy=-2.2320195929749502 pbc="F F F"
Tl       0.00000000       0.00000000       0.00000000       0.00000000       0.00000000       0.81824577
Tl       0.00000000       0.00000000       3.17818182       0.00000000       0.00000000      -0.81824577
2
Properties=species:S:1:pos:R:3:forces:R:3 energy=-2.1829988222650343 pbc="F F F"
Tl       0.00000000       0.00000000       0.00000000       0.00000000       0.00000000       0.84428114
Tl       0.00000000       0.00000000       3.23696970       0.00000000       0.00000000      -0.84428114
2
Properties=species:S:1:pos:R:3:forces:R:3 energy=-2.1332418997439766 pbc="F F F"
Tl       0.00000000       0.00000000       0.00000000       0.00000000       0.00000000       0.84533173
Tl       0.00000000       0.00000000       3.29575758       0.00000000       0.00000000      -0.84533173
2
Properties=species:S:1:pos:R:3:forces:R:3 energy=-2.0838700104915424 pbc="F F F"
Tl       0.00000000       0.00000000       0.00000000       0.00000000       0.00000000       0.83294815
Tl       0.00000000       0.00000000       3.35454545       0.00000000       0.00000000      -0.83294815
2
Properties=species:S:1:pos:R:3:forces:R:3 energy=-2.0353910749727557 pbc="F F F"
Tl       0.00000000       0.00000000       0.00000000       0.00000000       0.00000000       0.81619406
Tl       0.00000000       0.00000000       3.41333333       0.00000000       0.00000000      -0.81619406
2
Properties=species:S:1:pos:R:3:forces:R:3 energy=-1.987865115792398 pbc="F F F"
Tl       0.00000000       0.00000000       0.00000000       0.00000000       0.00000000       0.80134457
Tl       0.00000000       0.00000000       3.47212121       0.00000000       0.00000000      -0.80134457
2
Properties=species:S:1:pos:R:3:forces:R:3 energy=-1.9410590612047787 pbc="F F F"
Tl       0.00000000       0.00000000       0.00000000       0.00000000       0.00000000       0.79222870
Tl       0.00000000       0.00000000       3.53090909       0.00000000       0.00000000      -0.79222870
2
Properties=species:S:1:pos:R:3:forces:R:3 energy=-1.894568796964191 pbc="F F F"
Tl       0.00000000       0.00000000       0.00000000       0.00000000       0.00000000       0.79074001
Tl       0.00000000       0.00000000       3.58969697       0.00000000       0.00000000      -0.79074001
2
Properties=species:S:1:pos:R:3:forces:R:3 energy=-1.8479287292144784 pbc="F F F"
Tl       0.00000000       0.00000000       0.00000000       0.00000000       0.00000000       0.79728472
Tl       0.00000000       0.00000000       3.64848485       0.00000000       0.00000000      -0.79728472
2
Properties=species:S:1:pos:R:3:forces:R:3 energy=-1.8006868703424908 pbc="F F F"
Tl       0.00000000       0.00000000       0.00000000       0.00000000       0.00000000       0.81096250
Tl       0.00000000       0.00000000       3.70727273       0.00000000       0.00000000      -0.81096250
2
Properties=species:S:1:pos:R:3:forces:R:3 energy=-1.7524800435122778 pbc="F F F"
Tl       0.00000000       0.00000000       0.00000000       0.00000000       0.00000000       0.82964164
Tl       0.00000000       0.00000000       3.76606061       0.00000000       0.00000000      -0.82964164
2
Properties=species:S:1:pos:R:3:forces:R:3 energy=-1.7031047789938296 pbc="F F F"
Tl       0.00000000       0.00000000       0.00000000       0.00000000       0.00000000       0.85016495
Tl       0.00000000       0.00000000       3.82484848       0.00000000       0.00000000      -0.85016495
2
Properties=species:S:1:pos:R:3:forces:R:3 energy=-1.6525569464919518 pbc="F F F"
Tl       0.00000000       0.00000000       0.00000000       0.00000000       0.00000000       0.86884731
Tl       0.00000000       0.00000000       3.88363636       0.00000000       0.00000000      -0.86884731
2
Properties=species:S:1:pos:R:3:forces:R:3 energy=-1.6010549396011564 pbc="F F F"
Tl       0.00000000       0.00000000       0.00000000       0.00000000       0.00000000       0.88213807
Tl       0.00000000       0.00000000       3.94242424       0.00000000       0.00000000      -0.88213807
2
Properties=species:S:1:pos:R:3:forces:R:3 energy=-1.549001047996105 pbc="F F F"
Tl       0.00000000       0.00000000       0.00000000       0.00000000       0.00000000       0.88725382
Tl       0.00000000       0.00000000       4.00121212       0.00000000       0.00000000      -0.88725382
2
Properties=species:S:1:pos:R:3:forces:R:3 energy=-1.4969282860887303 pbc="F F F"
Tl       0.00000000       0.00000000       0.00000000       0.00000000       0.00000000       0.88259494
Tl       0.00000000       0.00000000       4.06000000       0.00000000       0.00000000      -0.88259494
2
Properties=species:S:1:pos:R:3:forces:R:3 energy=-1.445427379090315 pbc="F F F"
Tl       0.00000000       0.00000000       0.00000000       0.00000000       0.00000000       0.86788309
Tl       0.00000000       0.00000000       4.11878788       0.00000000       0.00000000      -0.86788309
2
Properties=species:S:1:pos:R:3:forces:R:3 energy=-1.3950654856187235 pbc="F F F"
Tl       0.00000000       0.00000000       0.00000000       0.00000000       0.00000000       0.84404308
Tl       0.00000000       0.00000000       4.17757576       0.00000000       0.00000000      -0.84404308
2
Properties=species:S:1:pos:R:3:forces:R:3 energy=-1.3463303213877773 pbc="F F F"
Tl       0.00000000       0.00000000       0.00000000       0.00000000       0.00000000       0.81290865
Tl       0.00000000       0.00000000       4.23636364       0.00000000       0.00000000      -0.81290865
2
Properties=species:S:1:pos:R:3:forces:R:3 energy=-1.2995825883650802 pbc="F F F"
Tl       0.00000000       0.00000000       0.00000000       0.00000000       0.00000000       0.77683640
Tl       0.00000000       0.00000000       4.29515152       0.00000000       0.00000000      -0.77683640
2
Properties=species:S:1:pos:R:3:forces:R:3 energy=-1.2550420284530923 pbc="F F F"
Tl       0.00000000       0.00000000       0.00000000       0.00000000       0.00000000       0.73831427
Tl       0.00000000       0.00000000       4.35393939       0.00000000       0.00000000      -0.73831427
2
Properties=species:S:1:pos:R:3:forces:R:3 energy=-1.2127796622140201 pbc="F F F"
Tl       0.00000000       0.00000000       0.00000000       0.00000000       0.00000000       0.69958353
Tl       0.00000000       0.00000000       4.41272727       0.00000000       0.00000000      -0.69958353
2
Properties=species:S:1:pos:R:3:forces:R:3 energy=-1.1727563663302523 pbc="F F F"
Tl       0.00000000       0.00000000       0.00000000       0.00000000       0.00000000       0.66239858
Tl       0.00000000       0.00000000       4.47151515       0.00000000       0.00000000      -0.66239858
2
Properties=species:S:1:pos:R:3:forces:R:3 energy=-1.1348443027660784 pbc="F F F"
Tl       0.00000000       0.00000000       0.00000000       0.00000000       0.00000000       0.62789059
Tl       0.00000000       0.00000000       4.53030303       0.00000000       0.00000000      -0.62789059
2
Properties=species:S:1:pos:R:3:forces:R:3 energy=-1.098868950129698 pbc="F F F"
Tl       0.00000000       0.00000000       0.00000000       0.00000000       0.00000000       0.59658194
Tl       0.00000000       0.00000000       4.58909091       0.00000000       0.00000000      -0.59658194
2
Properties=species:S:1:pos:R:3:forces:R:3 energy=-1.064637694895781 pbc="F F F"
Tl       0.00000000       0.00000000       0.00000000       0.00000000       0.00000000       0.56852692
Tl       0.00000000       0.00000000       4.64787879       0.00000000       0.00000000      -0.56852692
2
Properties=species:S:1:pos:R:3:forces:R:3 energy=-1.0319645419904708 pbc="F F F"
Tl       0.00000000       0.00000000       0.00000000       0.00000000       0.00000000       0.54347885
Tl       0.00000000       0.00000000       4.70666667       0.00000000       0.00000000      -0.54347885
2
Properties=species:S:1:pos:R:3:forces:R:3 energy=-1.000685875760183 pbc="F F F"
Tl       0.00000000       0.00000000       0.00000000       0.00000000       0.00000000       0.52108538
Tl       0.00000000       0.00000000       4.76545455       0.00000000       0.00000000      -0.52108538
2
Properties=species:S:1:pos:R:3:forces:R:3 energy=-0.9706509828330868 pbc="F F F"
Tl       0.00000000       0.00000000       0.00000000       0.00000000       0.00000000       0.50101209
Tl       0.00000000       0.00000000       4.82424242       0.00000000       0.00000000      -0.50101209
2
Properties=species:S:1:pos:R:3:forces:R:3 energy=-0.9417404757060068 pbc="F F F"
Tl       0.00000000       0.00000000       0.00000000       0.00000000       0.00000000       0.48296797
Tl       0.00000000       0.00000000       4.88303030       0.00000000       0.00000000      -0.48296797
2
Properties=species:S:1:pos:R:3:forces:R:3 energy=-0.9138326693891277 pbc="F F F"
Tl       0.00000000       0.00000000       0.00000000       0.00000000       0.00000000       0.46666339
Tl       0.00000000       0.00000000       4.94181818       0.00000000       0.00000000      -0.46666339
2
Properties=species:S:1:pos:R:3:forces:R:3 energy=-0.886844350399043 pbc="F F F"
Tl       0.00000000       0.00000000       0.00000000       0.00000000       0.00000000       0.45169231
Tl       0.00000000       0.00000000       5.00060606       0.00000000       0.00000000      -0.45169231
2
Properties=species:S:1:pos:R:3:forces:R:3 energy=-0.8607094763097919 pbc="F F F"
Tl       0.00000000       0.00000000       0.00000000       0.00000000       0.00000000       0.43741482
Tl       0.00000000       0.00000000       5.05939394       0.00000000       0.00000000      -0.43741482
2
Properties=species:S:1:pos:R:3:forces:R:3 energy=-0.8354197463410664 pbc="F F F"
Tl       0.00000000       0.00000000       0.00000000       0.00000000       0.00000000       0.42288086
Tl       0.00000000       0.00000000       5.11818182       0.00000000       0.00000000      -0.42288086
2
Properties=species:S:1:pos:R:3:forces:R:3 energy=-0.8110186240546877 pbc="F F F"
Tl       0.00000000       0.00000000       0.00000000       0.00000000       0.00000000       0.40690583
Tl       0.00000000       0.00000000       5.17696970       0.00000000       0.00000000      -0.40690583
2
Properties=species:S:1:pos:R:3:forces:R:3 energy=-0.7876318933625562 pbc="F F F"
Tl       0.00000000       0.00000000       0.00000000       0.00000000       0.00000000       0.38820624
Tl       0.00000000       0.00000000       5.23575758       0.00000000       0.00000000      -0.38820624
2
Properties=species:S:1:pos:R:3:forces:R:3 energy=-0.7654512571618957 pbc="F F F"
Tl       0.00000000       0.00000000       0.00000000       0.00000000       0.00000000       0.36566418
Tl       0.00000000       0.00000000       5.29454545       0.00000000       0.00000000      -0.36566418
2
Properties=species:S:1:pos:R:3:forces:R:3 energy=-0.7447263318898963 pbc="F F F"
Tl       0.00000000       0.00000000       0.00000000       0.00000000       0.00000000       0.33860445
Tl       0.00000000       0.00000000       5.35333333       0.00000000       0.00000000      -0.33860445
2
Properties=species:S:1:pos:R:3:forces:R:3 energy=-0.7257312851777109 pbc="F F F"
Tl       0.00000000       0.00000000       0.00000000       0.00000000       0.00000000       0.30693293
Tl       0.00000000       0.00000000       5.41212121       0.00000000       0.00000000      -0.30693293
2
Properties=species:S:1:pos:R:3:forces:R:3 energy=-0.7087184866115088 pbc="F F F"
Tl       0.00000000       0.00000000       0.00000000       0.00000000       0.00000000       0.27120510
Tl       0.00000000       0.00000000       5.47090909       0.00000000       0.00000000      -0.27120510
2
Properties=species:S:1:pos:R:3:forces:R:3 energy=-0.6938993245403253 pbc="F F F"
Tl       0.00000000       0.00000000       0.00000000       0.00000000       0.00000000       0.23255502
Tl       0.00000000       0.00000000       5.52969697       0.00000000       0.00000000      -0.23255502
2
Properties=species:S:1:pos:R:3:forces:R:3 energy=-0.6814036901727492 pbc="F F F"
Tl       0.00000000       0.00000000       0.00000000       0.00000000       0.00000000       0.19248475
Tl       0.00000000       0.00000000       5.58848485       0.00000000       0.00000000      -0.19248475
2
Properties=species:S:1:pos:R:3:forces:R:3 energy=-0.6712675576360534 pbc="F F F"
Tl       0.00000000       0.00000000       0.00000000       0.00000000       0.00000000       0.15274633
Tl       0.00000000       0.00000000       5.64727273       0.00000000       0.00000000      -0.15274633
2
Properties=species:S:1:pos:R:3:forces:R:3 energy=-0.6634063939689823 pbc="F F F"
Tl       0.00000000       0.00000000       0.00000000       0.00000000       0.00000000       0.11509798
Tl       0.00000000       0.00000000       5.70606061       0.00000000       0.00000000      -0.11509798
2
Properties=species:S:1:pos:R:3:forces:R:3 energy=-0.6576489016863378 pbc="F F F"
Tl       0.00000000       0.00000000       0.00000000       0.00000000       0.00000000       0.08120944
Tl       0.00000000       0.00000000       5.76484848       0.00000000       0.00000000      -0.08120944
2
Properties=species:S:1:pos:R:3:forces:R:3 energy=-0.6537452721463825 pbc="F F F"
Tl       0.00000000       0.00000000       0.00000000       0.00000000       0.00000000       0.05265073
Tl       0.00000000       0.00000000       5.82363636       0.00000000       0.00000000      -0.05265073
2
Properties=species:S:1:pos:R:3:forces:R:3 energy=-0.6513353788452835 pbc="F F F"
Tl       0.00000000       0.00000000       0.00000000       0.00000000       0.00000000       0.03076640
Tl       0.00000000       0.00000000       5.88242424       0.00000000       0.00000000      -0.03076640
2
Properties=species:S:1:pos:R:3:forces:R:3 energy=-0.6499769751658255 pbc="F F F"
Tl       0.00000000       0.00000000       0.00000000       0.00000000       0.00000000       0.01671996
Tl       0.00000000       0.00000000       5.94121212       0.00000000       0.00000000      -0.01671996
2
Properties=species:S:1:pos:R:3:forces:R:3 energy=-0.6491930268010065 pbc="F F F"
Tl       0.00000000       0.00000000       0.00000000       0.00000000       0.00000000       0.01155493
Tl       0.00000000       0.00000000       6.00000000       0.00000000       0.00000000      -0.01155493
