2
Properties=species:S:1:pos:R:3:forces:R:3 energy=20858.73550933977 pbc="F F F"
U        0.00000000       0.00000000       0.00000000       0.00000000       0.00000000 -375712.00000000
U        0.00000000       0.00000000       0.18000000       0.00000000       0.00000000  375712.00000000
2
Properties=species:S:1:pos:R:3:forces:R:3 energy=7865.638341371022 pbc="F F F"
U        0.00000000       0.00000000       0.00000000       0.00000000       0.00000000 -121063.30468750
U        0.00000000       0.00000000       0.23878788       0.00000000       0.00000000  121063.30468750
2
Properties=species:S:1:pos:R:3:forces:R:3 energy=3358.342687074147 pbc="F F F"
U        0.00000000       0.00000000       0.00000000       0.00000000       0.00000000  -45830.15625000
U        0.00000000       0.00000000       0.29757576       0.00000000       0.00000000   45830.15625000
2
Properties=species:S:1:pos:R:3:forces:R:3 energy=1571.2634634413341 pbc="F F F"
U        0.00000000       0.00000000       0.00000000       0.00000000       0.00000000  -19206.50976562
U        0.00000000       0.00000000       0.35636364       0.00000000       0.00000000   19206.50976562
2
Properties=species:S:1:pos:R:3:forces:R:3 energy=796.4090933241467 pbc="F F F"
U        0.00000000       0.00000000       0.00000000       0.00000000       0.00000000   -8681.48925781
U        0.00000000       0.00000000       0.41515152       0.00000000       0.00000000    8681.48925781
2
Properties=species:S:1:pos:R:3:forces:R:3 energy=436.10251373430293 pbc="F F F"
U        0.00000000       0.00000000       0.00000000       0.00000000       0.00000000   -4179.65136719
U        0.00000000       0.00000000       0.47393939       0.00000000       0.00000000    4179.65136719
2
Properties=species:S:1:pos:R:3:forces:R:3 energy=258.2554373436299 pbc="F F F"
U        0.00000000       0.00000000       0.00000000       0.00000000       0.00000000   -2126.27587891
U        0.00000000       0.00000000       0.53272727       0.00000000       0.00000000    2126.27587891
2
Properties=species:S:1:pos:R:3:forces:R:3 energy=165.75867223225373 pbc="F F F"
U        0.00000000       0.00000000       0.00000000       0.00000000       0.00000000   -1135.30444336
U        0.00000000       0.00000000       0.59151515       0.00000000       0.00000000    1135.30444336
2
Properties=species:S:1:pos:R:3:forces:R:3 energy=115.39307168433008 pbc="F F F"
U        0.00000000       0.00000000       0.00000000       0.00000000       0.00000000    -632.66070557
U        0.00000000       0.00000000       0.65030303       0.00000000       0.00000000     632.66070557
2
Properties=species:S:1:pos:R:3:forces:R:3 energy=86.81145248499122 pbc="F F F"
U        0.00000000       0.00000000       0.00000000       0.00000000       0.00000000    -366.93386841
U        0.00000000       0.00000000       0.70909091       0.00000000       0.00000000     366.93386841
2
Properties=species:S:1:pos:R:3:forces:R:3 energy=69.9250695297209 pbc="F F F"
U        0.00000000       0.00000000       0.00000000       0.00000000       0.00000000    -221.67884827
U        0.00000000       0.00000000       0.76787879       0.00000000       0.00000000     221.67884827
2
Properties=species:S:1:pos:R:3:forces:R:3 energy=59.53178965247949 pbc="F F F"
U        0.00000000       0.00000000       0.00000000       0.00000000       0.00000000    -139.39538574
U        0.00000000       0.00000000       0.82666667       0.00000000       0.00000000     139.39538574
2
Properties=species:S:1:pos:R:3:forces:R:3 energy=52.835050671114054 pbc="F F F"
U        0.00000000       0.00000000       0.00000000       0.00000000       0.00000000     -93.61586761
U        0.00000000       0.00000000       0.88545455       0.00000000       0.00000000      93.61586761
2
Properties=species:S:1:pos:R:3:forces:R:3 energy=47.9436477643115 pbc="F F F"
U        0.00000000       0.00000000       0.00000000       0.00000000       0.00000000     -77.34513855
U        0.00000000       0.00000000       0.94424242       0.00000000       0.00000000      77.34513855
2
Properties=species:S:1:pos:R:3:forces:R:3 energy=43.300741980827894 pbc="F F F"
U        0.00000000       0.00000000       0.00000000       0.00000000       0.00000000     -83.46317291
U        0.00000000       0.00000000       1.00303030       0.00000000       0.00000000      83.46317291
2
Properties=species:S:1:pos:R:3:forces:R:3 energy=37.88934268438471 pbc="F F F"
U        0.00000000       0.00000000       0.00000000       0.00000000       0.00000000    -101.93640137
U        0.00000000       0.00000000       1.06181818       0.00000000       0.00000000     101.93640137
2
Properties=species:S:1:pos:R:3:forces:R:3 energy=31.257482673615932 pbc="F F F"
U        0.00000000       0.00000000       0.00000000       0.00000000       0.00000000    -123.57025146
U        0.00000000       0.00000000       1.12060606       0.00000000       0.00000000     123.57025146
2
Properties=species:S:1:pos:R:3:forces:R:3 energy=23.177390252844802 pbc="F F F"
U        0.00000000       0.00000000       0.00000000       0.00000000       0.00000000    -153.48138428
U        0.00000000       0.00000000       1.17939394       0.00000000       0.00000000     153.48138428
2
Properties=species:S:1:pos:R:3:forces:R:3 energy=13.36970373523167 pbc="F F F"
U        0.00000000       0.00000000       0.00000000       0.00000000       0.00000000    -183.64173889
U        0.00000000       0.00000000       1.23818182       0.00000000       0.00000000     183.64173889
2
Properties=species:S:1:pos:R:3:forces:R:3 energy=7.804149721290402 pbc="F F F"
U        0.00000000       0.00000000       0.00000000       0.00000000       0.00000000      51.95452499
U        0.00000000       0.00000000       1.29696970       0.00000000       0.00000000     -51.95452499
2
Properties=species:S:1:pos:R:3:forces:R:3 energy=9.771419700795017 pbc="F F F"
U        0.00000000       0.00000000       0.00000000       0.00000000       0.00000000      -1.81601822
U        0.00000000       0.00000000       1.35575758       0.00000000       0.00000000       1.81601822
2
Properties=species:S:1:pos:R:3:forces:R:3 energy=8.447466661150196 pbc="F F F"
U        0.00000000       0.00000000       0.00000000       0.00000000       0.00000000     -38.74483109
U        0.00000000       0.00000000       1.41454545       0.00000000       0.00000000      38.74483109
2
Properties=species:S:1:pos:R:3:forces:R:3 energy=5.49275879255643 pbc="F F F"
U        0.00000000       0.00000000       0.00000000       0.00000000       0.00000000     -59.39558029
U        0.00000000       0.00000000       1.47333333       0.00000000       0.00000000      59.39558029
2
Properties=species:S:1:pos:R:3:forces:R:3 energy=1.7525844983989636 pbc="F F F"
U        0.00000000       0.00000000       0.00000000       0.00000000       0.00000000     -66.13063049
U        0.00000000       0.00000000       1.53212121       0.00000000       0.00000000      66.13063049
2
Properties=species:S:1:pos:R:3:forces:R:3 energy=-2.2059908556566783 pbc="F F F"
U        0.00000000       0.00000000       0.00000000       0.00000000       0.00000000     -67.81573486
U        0.00000000       0.00000000       1.59090909       0.00000000       0.00000000      67.81573486
2
Properties=species:S:1:pos:R:3:forces:R:3 energy=-5.891192571205326 pbc="F F F"
U        0.00000000       0.00000000       0.00000000       0.00000000       0.00000000     -52.88808823
U        0.00000000       0.00000000       1.64969697       0.00000000       0.00000000      52.88808823
2
Properties=species:S:1:pos:R:3:forces:R:3 energy=-7.9885644721547004 pbc="F F F"
U        0.00000000       0.00000000       0.00000000       0.00000000       0.00000000     -17.93670845
U        0.00000000       0.00000000       1.70848485       0.00000000       0.00000000      17.93670845
2
Properties=species:S:1:pos:R:3:forces:R:3 energy=-8.356250174892994 pbc="F F F"
U        0.00000000       0.00000000       0.00000000       0.00000000       0.00000000       0.63165069
U        0.00000000       0.00000000       1.76727273       0.00000000       0.00000000      -0.63165069
2
Properties=species:S:1:pos:R:3:forces:R:3 energy=-8.373661161395994 pbc="F F F"
U        0.00000000       0.00000000       0.00000000       0.00000000       0.00000000      -3.47024918
U        0.00000000       0.00000000       1.82606061       0.00000000       0.00000000       3.47024918
2
Properties=species:S:1:pos:R:3:forces:R:3 energy=-8.840588526968787 pbc="F F F"
U        0.00000000       0.00000000       0.00000000       0.00000000       0.00000000     -11.87990284
U        0.00000000       0.00000000       1.88484848       0.00000000       0.00000000      11.87990284
2
Properties=species:S:1:pos:R:3:forces:R:3 energy=-9.647080973555918 pbc="F F F"
U        0.00000000       0.00000000       0.00000000       0.00000000       0.00000000     -14.38199806
U        0.00000000       0.00000000       1.94363636       0.00000000       0.00000000      14.38199806
2
Properties=species:S:1:pos:R:3:forces:R:3 energy=-10.425872495752513 pbc="F F F"
U        0.00000000       0.00000000       0.00000000       0.00000000       0.00000000     -11.60911274
U        0.00000000       0.00000000       2.00242424       0.00000000       0.00000000      11.60911274
2
Properties=species:S:1:pos:R:3:forces:R:3 energy=-10.995336418877239 pbc="F F F"
U        0.00000000       0.00000000       0.00000000       0.00000000       0.00000000      -7.87539673
U        0.00000000       0.00000000       2.06121212       0.00000000       0.00000000       7.87539673
2
Properties=species:S:1:pos:R:3:forces:R:3 energy=-11.374822452685184 pbc="F F F"
U        0.00000000       0.00000000       0.00000000       0.00000000       0.00000000      -5.23841286
U        0.00000000       0.00000000       2.12000000       0.00000000       0.00000000       5.23841286
2
Properties=species:S:1:pos:R:3:forces:R:3 energy=-11.630273820952638 pbc="F F F"
U        0.00000000       0.00000000       0.00000000       0.00000000       0.00000000      -3.56923389
U        0.00000000       0.00000000       2.17878788       0.00000000       0.00000000       3.56923389
2
Properties=species:S:1:pos:R:3:forces:R:3 energy=-11.804388991038111 pbc="F F F"
U        0.00000000       0.00000000       0.00000000       0.00000000       0.00000000      -2.41608167
U        0.00000000       0.00000000       2.23757576       0.00000000       0.00000000       2.41608167
2
Properties=species:S:1:pos:R:3:forces:R:3 energy=-11.92032546615891 pbc="F F F"
U        0.00000000       0.00000000       0.00000000       0.00000000       0.00000000      -1.57274938
U        0.00000000       0.00000000       2.29636364       0.00000000       0.00000000       1.57274938
2
Properties=species:S:1:pos:R:3:forces:R:3 energy=-11.994208405808317 pbc="F F F"
U        0.00000000       0.00000000       0.00000000       0.00000000       0.00000000      -0.98028016
U        0.00000000       0.00000000       2.35515152       0.00000000       0.00000000       0.98028016
2
Properties=species:S:1:pos:R:3:forces:R:3 energy=-12.039972227519362 pbc="F F F"
U        0.00000000       0.00000000       0.00000000       0.00000000       0.00000000      -0.61125106
U        0.00000000       0.00000000       2.41393939       0.00000000       0.00000000       0.61125106
2
Properties=species:S:1:pos:R:3:forces:R:3 energy=-12.069713643759941 pbc="F F F"
U        0.00000000       0.00000000       0.00000000       0.00000000       0.00000000      -0.42729262
U        0.00000000       0.00000000       2.47272727       0.00000000       0.00000000       0.42729262
2
Properties=species:S:1:pos:R:3:forces:R:3 energy=-12.092791292007819 pbc="F F F"
U        0.00000000       0.00000000       0.00000000       0.00000000       0.00000000      -0.37481600
U        0.00000000       0.00000000       2.53151515       0.00000000       0.00000000       0.37481600
2
Properties=species:S:1:pos:R:3:forces:R:3 energy=-12.115213387140464 pbc="F F F"
U        0.00000000       0.00000000       0.00000000       0.00000000       0.00000000      -0.39568192
U        0.00000000       0.00000000       2.59030303       0.00000000       0.00000000       0.39568192
2
Properties=species:S:1:pos:R:3:forces:R:3 energy=-12.139781992353905 pbc="F F F"
U        0.00000000       0.00000000       0.00000000       0.00000000       0.00000000      -0.44104078
U        0.00000000       0.00000000       2.64909091       0.00000000       0.00000000       0.44104078
2
Properties=species:S:1:pos:R:3:forces:R:3 energy=-12.166919499998961 pbc="F F F"
U        0.00000000       0.00000000       0.00000000       0.00000000       0.00000000      -0.47930312
U        0.00000000       0.00000000       2.70787879       0.00000000       0.00000000       0.47930312
2
Properties=species:S:1:pos:R:3:forces:R:3 energy=-12.195662638987292 pbc="F F F"
U        0.00000000       0.00000000       0.00000000       0.00000000       0.00000000      -0.49361598
U        0.00000000       0.00000000       2.76666667       0.00000000       0.00000000       0.49361598
2
Properties=species:S:1:pos:R:3:forces:R:3 energy=-12.224262310593836 pbc="F F F"
U        0.00000000       0.00000000       0.00000000       0.00000000       0.00000000      -0.47235283
U        0.00000000       0.00000000       2.82545455       0.00000000       0.00000000       0.47235283
2
Properties=species:S:1:pos:R:3:forces:R:3 energy=-12.250219536641202 pbc="F F F"
U        0.00000000       0.00000000       0.00000000       0.00000000       0.00000000      -0.40085435
U        0.00000000       0.00000000       2.88424242       0.00000000       0.00000000       0.40085435
2
Properties=species:S:1:pos:R:3:forces:R:3 energy=-12.270047281675046 pbc="F F F"
U        0.00000000       0.00000000       0.00000000       0.00000000       0.00000000      -0.26080188
U        0.00000000       0.00000000       2.94303030       0.00000000       0.00000000       0.26080188
2
Properties=species:S:1:pos:R:3:forces:R:3 energy=-12.279247830877537 pbc="F F F"
U        0.00000000       0.00000000       0.00000000       0.00000000       0.00000000      -0.03781056
U        0.00000000       0.00000000       3.00181818       0.00000000       0.00000000       0.03781056
2
Properties=species:S:1:pos:R:3:forces:R:3 energy=-12.272865122879697 pbc="F F F"
U        0.00000000       0.00000000       0.00000000       0.00000000       0.00000000       0.26744297
U        0.00000000       0.00000000       3.06060606       0.00000000       0.00000000      -0.26744297
2
Properties=species:S:1:pos:R:3:forces:R:3 energy=-12.246623357539782 pbc="F F F"
U        0.00000000       0.00000000       0.00000000       0.00000000       0.00000000       0.63218307
U        0.00000000       0.00000000       3.11939394       0.00000000       0.00000000      -0.63218307
2
Properties=species:S:1:pos:R:3:forces:R:3 energy=-12.198182351453562 pbc="F F F"
U        0.00000000       0.00000000       0.00000000       0.00000000       0.00000000       1.01479387
U        0.00000000       0.00000000       3.17818182       0.00000000       0.00000000      -1.01479387
2
Properties=species:S:1:pos:R:3:forces:R:3 energy=-12.127886704486817 pbc="F F F"
U        0.00000000       0.00000000       0.00000000       0.00000000       0.00000000       1.36831129
U        0.00000000       0.00000000       3.23696970       0.00000000       0.00000000      -1.36831129
2
Properties=species:S:1:pos:R:3:forces:R:3 energy=-12.038588597078205 pbc="F F F"
U        0.00000000       0.00000000       0.00000000       0.00000000       0.00000000       1.65691483
U        0.00000000       0.00000000       3.29575758       0.00000000       0.00000000      -1.65691483
2
Properties=species:S:1:pos:R:3:forces:R:3 energy=-11.934652163596539 pbc="F F F"
U        0.00000000       0.00000000       0.00000000       0.00000000       0.00000000       1.86568725
U        0.00000000       0.00000000       3.35454545       0.00000000       0.00000000      -1.86568725
2
Properties=species:S:1:pos:R:3:forces:R:3 energy=-11.820701536702936 pbc="F F F"
U        0.00000000       0.00000000       0.00000000       0.00000000       0.00000000       1.99965155
U        0.00000000       0.00000000       3.41333333       0.00000000       0.00000000      -1.99965155
2
Properties=species:S:1:pos:R:3:forces:R:3 energy=-11.700690263958611 pbc="F F F"
U        0.00000000       0.00000000       0.00000000       0.00000000       0.00000000       2.07496142
U        0.00000000       0.00000000       3.47212121       0.00000000       0.00000000      -2.07496142
2
Properties=species:S:1:pos:R:3:forces:R:3 energy=-11.577544887056323 pbc="F F F"
U        0.00000000       0.00000000       0.00000000       0.00000000       0.00000000       2.10884333
U        0.00000000       0.00000000       3.53090909       0.00000000       0.00000000      -2.10884333
2
Properties=species:S:1:pos:R:3:forces:R:3 energy=-11.453316069185135 pbc="F F F"
U        0.00000000       0.00000000       0.00000000       0.00000000       0.00000000       2.11319280
U        0.00000000       0.00000000       3.58969697       0.00000000       0.00000000      -2.11319280
2
Properties=species:S:1:pos:R:3:forces:R:3 energy=-11.32955795134005 pbc="F F F"
U        0.00000000       0.00000000       0.00000000       0.00000000       0.00000000       2.09322977
U        0.00000000       0.00000000       3.64848485       0.00000000       0.00000000      -2.09322977
2
Properties=species:S:1:pos:R:3:forces:R:3 energy=-11.20766804384499 pbc="F F F"
U        0.00000000       0.00000000       0.00000000       0.00000000       0.00000000       2.04946446
U        0.00000000       0.00000000       3.70727273       0.00000000       0.00000000      -2.04946446
2
Properties=species:S:1:pos:R:3:forces:R:3 energy=-11.089082944999559 pbc="F F F"
U        0.00000000       0.00000000       0.00000000       0.00000000       0.00000000       1.98052299
U        0.00000000       0.00000000       3.76606061       0.00000000       0.00000000      -1.98052299
2
Properties=species:S:1:pos:R:3:forces:R:3 energy=-10.975325866403757 pbc="F F F"
U        0.00000000       0.00000000       0.00000000       0.00000000       0.00000000       1.88517022
U        0.00000000       0.00000000       3.82484848       0.00000000       0.00000000      -1.88517022
2
Properties=species:S:1:pos:R:3:forces:R:3 energy=-10.867951592280338 pbc="F F F"
U        0.00000000       0.00000000       0.00000000       0.00000000       0.00000000       1.76339173
U        0.00000000       0.00000000       3.88363636       0.00000000       0.00000000      -1.76339173
2
Properties=species:S:1:pos:R:3:forces:R:3 energy=-10.768473987555467 pbc="F F F"
U        0.00000000       0.00000000       0.00000000       0.00000000       0.00000000       1.61710608
U        0.00000000       0.00000000       3.94242424       0.00000000       0.00000000      -1.61710608
2
Properties=species:S:1:pos:R:3:forces:R:3 energy=-10.678217975599063 pbc="F F F"
U        0.00000000       0.00000000       0.00000000       0.00000000       0.00000000       1.45065904
U        0.00000000       0.00000000       4.00121212       0.00000000       0.00000000      -1.45065904
2
Properties=species:S:1:pos:R:3:forces:R:3 energy=-10.598175767821866 pbc="F F F"
U        0.00000000       0.00000000       0.00000000       0.00000000       0.00000000       1.27088773
U        0.00000000       0.00000000       4.06000000       0.00000000       0.00000000      -1.27088773
2
Properties=species:S:1:pos:R:3:forces:R:3 energy=-10.528882790979628 pbc="F F F"
U        0.00000000       0.00000000       0.00000000       0.00000000       0.00000000       1.08651340
U        0.00000000       0.00000000       4.11878788       0.00000000       0.00000000      -1.08651340
2
Properties=species:S:1:pos:R:3:forces:R:3 energy=-10.470334882234347 pbc="F F F"
U        0.00000000       0.00000000       0.00000000       0.00000000       0.00000000       0.90683389
U        0.00000000       0.00000000       4.17757576       0.00000000       0.00000000      -0.90683389
2
Properties=species:S:1:pos:R:3:forces:R:3 energy=-10.421999669889619 pbc="F F F"
U        0.00000000       0.00000000       0.00000000       0.00000000       0.00000000       0.74038768
U        0.00000000       0.00000000       4.23636364       0.00000000       0.00000000      -0.74038768
2
Properties=species:S:1:pos:R:3:forces:R:3 energy=-10.382890114018952 pbc="F F F"
U        0.00000000       0.00000000       0.00000000       0.00000000       0.00000000       0.59389490
U        0.00000000       0.00000000       4.29515152       0.00000000       0.00000000      -0.59389490
2
Properties=species:S:1:pos:R:3:forces:R:3 energy=-10.351692286152876 pbc="F F F"
U        0.00000000       0.00000000       0.00000000       0.00000000       0.00000000       0.47185069
U        0.00000000       0.00000000       4.35393939       0.00000000       0.00000000      -0.47185069
2
Properties=species:S:1:pos:R:3:forces:R:3 energy=-10.326887483940952 pbc="F F F"
U        0.00000000       0.00000000       0.00000000       0.00000000       0.00000000       0.37653449
U        0.00000000       0.00000000       4.41272727       0.00000000       0.00000000      -0.37653449
2
Properties=species:S:1:pos:R:3:forces:R:3 energy=-10.306886800600706 pbc="F F F"
U        0.00000000       0.00000000       0.00000000       0.00000000       0.00000000       0.30838344
U        0.00000000       0.00000000       4.47151515       0.00000000       0.00000000      -0.30838344
2
Properties=species:S:1:pos:R:3:forces:R:3 energy=-10.290115970253545 pbc="F F F"
U        0.00000000       0.00000000       0.00000000       0.00000000       0.00000000       0.26640466
U        0.00000000       0.00000000       4.53030303       0.00000000       0.00000000      -0.26640466
2
Properties=species:S:1:pos:R:3:forces:R:3 energy=-10.275090809566082 pbc="F F F"
U        0.00000000       0.00000000       0.00000000       0.00000000       0.00000000       0.24857798
U        0.00000000       0.00000000       4.58909091       0.00000000       0.00000000      -0.24857798
2
Properties=species:S:1:pos:R:3:forces:R:3 energy=-10.260468741505791 pbc="F F F"
U        0.00000000       0.00000000       0.00000000       0.00000000       0.00000000       0.25217828
U        0.00000000       0.00000000       4.64787879       0.00000000       0.00000000      -0.25217828
2
Properties=species:S:1:pos:R:3:forces:R:3 energy=-10.24508407495507 pbc="F F F"
U        0.00000000       0.00000000       0.00000000       0.00000000       0.00000000       0.27394006
U        0.00000000       0.00000000       4.70666667       0.00000000       0.00000000      -0.27394006
2
Properties=species:S:1:pos:R:3:forces:R:3 energy=-10.22797857297452 pbc="F F F"
U        0.00000000       0.00000000       0.00000000       0.00000000       0.00000000       0.31004146
U        0.00000000       0.00000000       4.76545455       0.00000000       0.00000000      -0.31004146
2
Properties=species:S:1:pos:R:3:forces:R:3 energy=-10.208436802109095 pbc="F F F"
U        0.00000000       0.00000000       0.00000000       0.00000000       0.00000000       0.35597748
U        0.00000000       0.00000000       4.82424242       0.00000000       0.00000000      -0.35597748
2
Properties=species:S:1:pos:R:3:forces:R:3 energy=-10.186037624465547 pbc="F F F"
U        0.00000000       0.00000000       0.00000000       0.00000000       0.00000000       0.40637311
U        0.00000000       0.00000000       4.88303030       0.00000000       0.00000000      -0.40637311
2
Properties=species:S:1:pos:R:3:forces:R:3 energy=-10.160689445648263 pbc="F F F"
U        0.00000000       0.00000000       0.00000000       0.00000000       0.00000000       0.45513916
U        0.00000000       0.00000000       4.94181818       0.00000000       0.00000000      -0.45513916
2
Properties=species:S:1:pos:R:3:forces:R:3 energy=-10.132680753162392 pbc="F F F"
U        0.00000000       0.00000000       0.00000000       0.00000000       0.00000000       0.49589896
U        0.00000000       0.00000000       5.00060606       0.00000000       0.00000000      -0.49589896
2
Properties=species:S:1:pos:R:3:forces:R:3 energy=-10.102651607554664 pbc="F F F"
U        0.00000000       0.00000000       0.00000000       0.00000000       0.00000000       0.52296871
U        0.00000000       0.00000000       5.05939394       0.00000000       0.00000000      -0.52296871
2
Properties=species:S:1:pos:R:3:forces:R:3 energy=-10.071541966602256 pbc="F F F"
U        0.00000000       0.00000000       0.00000000       0.00000000       0.00000000       0.53229392
U        0.00000000       0.00000000       5.11818182       0.00000000       0.00000000      -0.53229392
2
Properties=species:S:1:pos:R:3:forces:R:3 energy=-10.040448665843563 pbc="F F F"
U        0.00000000       0.00000000       0.00000000       0.00000000       0.00000000       0.52231187
U        0.00000000       0.00000000       5.17696970       0.00000000       0.00000000      -0.52231187
2
Properties=species:S:1:pos:R:3:forces:R:3 energy=-10.01049093782829 pbc="F F F"
U        0.00000000       0.00000000       0.00000000       0.00000000       0.00000000       0.49412242
U        0.00000000       0.00000000       5.23575758       0.00000000       0.00000000      -0.49412242
2
Properties=species:S:1:pos:R:3:forces:R:3 energy=-9.982643335378393 pbc="F F F"
U        0.00000000       0.00000000       0.00000000       0.00000000       0.00000000       0.45115018
U        0.00000000       0.00000000       5.29454545       0.00000000       0.00000000      -0.45115018
2
Properties=species:S:1:pos:R:3:forces:R:3 energy=-9.957640471862403 pbc="F F F"
U        0.00000000       0.00000000       0.00000000       0.00000000       0.00000000       0.39823854
U        0.00000000       0.00000000       5.35333333       0.00000000       0.00000000      -0.39823854
2
Properties=species:S:1:pos:R:3:forces:R:3 energy=-9.935911968601276 pbc="F F F"
U        0.00000000       0.00000000       0.00000000       0.00000000       0.00000000       0.34068888
U        0.00000000       0.00000000       5.41212121       0.00000000       0.00000000      -0.34068888
2
Properties=species:S:1:pos:R:3:forces:R:3 energy=-9.91758047149205 pbc="F F F"
U        0.00000000       0.00000000       0.00000000       0.00000000       0.00000000       0.28328097
U        0.00000000       0.00000000       5.47090909       0.00000000       0.00000000      -0.28328097
2
Properties=species:S:1:pos:R:3:forces:R:3 energy=-9.902526500861338 pbc="F F F"
U        0.00000000       0.00000000       0.00000000       0.00000000       0.00000000       0.22968474
U        0.00000000       0.00000000       5.52969697       0.00000000       0.00000000      -0.22968474
2
Properties=species:S:1:pos:R:3:forces:R:3 energy=-9.890454109273358 pbc="F F F"
U        0.00000000       0.00000000       0.00000000       0.00000000       0.00000000       0.18216592
U        0.00000000       0.00000000       5.58848485       0.00000000       0.00000000      -0.18216592
2
Properties=species:S:1:pos:R:3:forces:R:3 energy=-9.880972846835983 pbc="F F F"
U        0.00000000       0.00000000       0.00000000       0.00000000       0.00000000       0.14174452
U        0.00000000       0.00000000       5.64727273       0.00000000       0.00000000      -0.14174452
2
Properties=species:S:1:pos:R:3:forces:R:3 energy=-9.873651993923888 pbc="F F F"
U        0.00000000       0.00000000       0.00000000       0.00000000       0.00000000       0.10840887
U        0.00000000       0.00000000       5.70606061       0.00000000       0.00000000      -0.10840887
2
Properties=species:S:1:pos:R:3:forces:R:3 energy=-9.868088291061955 pbc="F F F"
U        0.00000000       0.00000000       0.00000000       0.00000000       0.00000000       0.08170905
U        0.00000000       0.00000000       5.76484848       0.00000000       0.00000000      -0.08170905
2
Properties=species:S:1:pos:R:3:forces:R:3 energy=-9.863921102679663 pbc="F F F"
U        0.00000000       0.00000000       0.00000000       0.00000000       0.00000000       0.06106234
U        0.00000000       0.00000000       5.82363636       0.00000000       0.00000000      -0.06106234
2
Properties=species:S:1:pos:R:3:forces:R:3 energy=-9.860803667497427 pbc="F F F"
U        0.00000000       0.00000000       0.00000000       0.00000000       0.00000000       0.04604256
U        0.00000000       0.00000000       5.88242424       0.00000000       0.00000000      -0.04604256
2
Properties=species:S:1:pos:R:3:forces:R:3 energy=-9.858401302051739 pbc="F F F"
U        0.00000000       0.00000000       0.00000000       0.00000000       0.00000000       0.03654658
U        0.00000000       0.00000000       5.94121212       0.00000000       0.00000000      -0.03654658
2
Properties=species:S:1:pos:R:3:forces:R:3 energy=-9.85639219281055 pbc="F F F"
U        0.00000000       0.00000000       0.00000000       0.00000000       0.00000000       0.03283592
U        0.00000000       0.00000000       6.00000000       0.00000000       0.00000000      -0.03283592
