2
Properties=species:S:1:pos:R:3:forces:R:3 energy=4402.905426110205 pbc="F F F"
Zn       0.00000000       0.00000000       0.00000000       0.00000000       0.00000000  -69304.03906250
Zn       0.00000000       0.00000000       0.18000000       0.00000000       0.00000000   69304.03906250
2
Properties=species:S:1:pos:R:3:forces:R:3 energy=1891.7882386102044 pbc="F F F"
Zn       0.00000000       0.00000000       0.00000000       0.00000000       0.00000000  -24986.16210938
Zn       0.00000000       0.00000000       0.23878788       0.00000000       0.00000000   24986.16210938
2
Properties=species:S:1:pos:R:3:forces:R:3 energy=915.6654969141536 pbc="F F F"
Zn       0.00000000       0.00000000       0.00000000       0.00000000       0.00000000  -10603.75097656
Zn       0.00000000       0.00000000       0.29757576       0.00000000       0.00000000   10603.75097656
2
Properties=species:S:1:pos:R:3:forces:R:3 energy=480.84854135091507 pbc="F F F"
Zn       0.00000000       0.00000000       0.00000000       0.00000000       0.00000000   -4989.06689453
Zn       0.00000000       0.00000000       0.35636364       0.00000000       0.00000000    4989.06689453
2
Properties=species:S:1:pos:R:3:forces:R:3 energy=269.602264501782 pbc="F F F"
Zn       0.00000000       0.00000000       0.00000000       0.00000000       0.00000000   -2511.60986328
Zn       0.00000000       0.00000000       0.41515152       0.00000000       0.00000000    2511.60986328
2
Properties=species:S:1:pos:R:3:forces:R:3 energy=160.93635571048017 pbc="F F F"
Zn       0.00000000       0.00000000       0.00000000       0.00000000       0.00000000   -1322.50793457
Zn       0.00000000       0.00000000       0.47393939       0.00000000       0.00000000    1322.50793457
2
Properties=species:S:1:pos:R:3:forces:R:3 energy=102.93676010006855 pbc="F F F"
Zn       0.00000000       0.00000000       0.00000000       0.00000000       0.00000000    -715.48638916
Zn       0.00000000       0.00000000       0.53272727       0.00000000       0.00000000     715.48638916
2
Properties=species:S:1:pos:R:3:forces:R:3 energy=71.37331410583184 pbc="F F F"
Zn       0.00000000       0.00000000       0.00000000       0.00000000       0.00000000    -391.00598145
Zn       0.00000000       0.00000000       0.59151515       0.00000000       0.00000000     391.00598145
2
Properties=species:S:1:pos:R:3:forces:R:3 energy=54.125381766784464 pbc="F F F"
Zn       0.00000000       0.00000000       0.00000000       0.00000000       0.00000000    -213.64247131
Zn       0.00000000       0.00000000       0.65030303       0.00000000       0.00000000     213.64247131
2
Properties=species:S:1:pos:R:3:forces:R:3 energy=44.61131330898866 pbc="F F F"
Zn       0.00000000       0.00000000       0.00000000       0.00000000       0.00000000    -121.18087769
Zn       0.00000000       0.00000000       0.70909091       0.00000000       0.00000000     121.18087769
2
Properties=species:S:1:pos:R:3:forces:R:3 energy=38.813538262181524 pbc="F F F"
Zn       0.00000000       0.00000000       0.00000000       0.00000000       0.00000000     -82.87335205
Zn       0.00000000       0.00000000       0.76787879       0.00000000       0.00000000      82.87335205
2
Properties=species:S:1:pos:R:3:forces:R:3 energy=34.3425188499298 pbc="F F F"
Zn       0.00000000       0.00000000       0.00000000       0.00000000       0.00000000     -71.89213562
Zn       0.00000000       0.00000000       0.82666667       0.00000000       0.00000000      71.89213562
2
Properties=species:S:1:pos:R:3:forces:R:3 energy=30.1350055127312 pbc="F F F"
Zn       0.00000000       0.00000000       0.00000000       0.00000000       0.00000000     -72.81583405
Zn       0.00000000       0.00000000       0.88545455       0.00000000       0.00000000      72.81583405
2
Properties=species:S:1:pos:R:3:forces:R:3 energy=25.64675543921633 pbc="F F F"
Zn       0.00000000       0.00000000       0.00000000       0.00000000       0.00000000     -80.38230896
Zn       0.00000000       0.00000000       0.94424242       0.00000000       0.00000000      80.38230896
2
Properties=species:S:1:pos:R:3:forces:R:3 energy=20.684100330430947 pbc="F F F"
Zn       0.00000000       0.00000000       0.00000000       0.00000000       0.00000000     -88.26161194
Zn       0.00000000       0.00000000       1.00303030       0.00000000       0.00000000      88.26161194
2
Properties=species:S:1:pos:R:3:forces:R:3 energy=15.321029161053412 pbc="F F F"
Zn       0.00000000       0.00000000       0.00000000       0.00000000       0.00000000     -92.70195770
Zn       0.00000000       0.00000000       1.06181818       0.00000000       0.00000000      92.70195770
2
Properties=species:S:1:pos:R:3:forces:R:3 energy=10.253929310737336 pbc="F F F"
Zn       0.00000000       0.00000000       0.00000000       0.00000000       0.00000000     -73.91404724
Zn       0.00000000       0.00000000       1.12060606       0.00000000       0.00000000      73.91404724
2
Properties=species:S:1:pos:R:3:forces:R:3 energy=7.003620544854493 pbc="F F F"
Zn       0.00000000       0.00000000       0.00000000       0.00000000       0.00000000     -37.79798508
Zn       0.00000000       0.00000000       1.17939394       0.00000000       0.00000000      37.79798508
2
Properties=species:S:1:pos:R:3:forces:R:3 energy=5.451597512212496 pbc="F F F"
Zn       0.00000000       0.00000000       0.00000000       0.00000000       0.00000000     -17.87455750
Zn       0.00000000       0.00000000       1.23818182       0.00000000       0.00000000      17.87455750
2
Properties=species:S:1:pos:R:3:forces:R:3 energy=4.660808572788586 pbc="F F F"
Zn       0.00000000       0.00000000       0.00000000       0.00000000       0.00000000     -10.48664570
Zn       0.00000000       0.00000000       1.29696970       0.00000000       0.00000000      10.48664570
2
Properties=species:S:1:pos:R:3:forces:R:3 energy=4.111104669855949 pbc="F F F"
Zn       0.00000000       0.00000000       0.00000000       0.00000000       0.00000000      -8.62795639
Zn       0.00000000       0.00000000       1.35575758       0.00000000       0.00000000       8.62795639
2
Properties=species:S:1:pos:R:3:forces:R:3 energy=3.6305370805565715 pbc="F F F"
Zn       0.00000000       0.00000000       0.00000000       0.00000000       0.00000000      -7.72859001
Zn       0.00000000       0.00000000       1.41454545       0.00000000       0.00000000       7.72859001
2
Properties=species:S:1:pos:R:3:forces:R:3 energy=3.2014730558613436 pbc="F F F"
Zn       0.00000000       0.00000000       0.00000000       0.00000000       0.00000000      -6.90510702
Zn       0.00000000       0.00000000       1.47333333       0.00000000       0.00000000       6.90510702
2
Properties=species:S:1:pos:R:3:forces:R:3 energy=2.8110708902629566 pbc="F F F"
Zn       0.00000000       0.00000000       0.00000000       0.00000000       0.00000000      -6.45629025
Zn       0.00000000       0.00000000       1.53212121       0.00000000       0.00000000       6.45629025
2
Properties=species:S:1:pos:R:3:forces:R:3 energy=2.4335573182847896 pbc="F F F"
Zn       0.00000000       0.00000000       0.00000000       0.00000000       0.00000000      -6.44649410
Zn       0.00000000       0.00000000       1.59090909       0.00000000       0.00000000       6.44649410
2
Properties=species:S:1:pos:R:3:forces:R:3 energy=2.049204797744415 pbc="F F F"
Zn       0.00000000       0.00000000       0.00000000       0.00000000       0.00000000      -6.63325787
Zn       0.00000000       0.00000000       1.64969697       0.00000000       0.00000000       6.63325787
2
Properties=species:S:1:pos:R:3:forces:R:3 energy=1.656521764171992 pbc="F F F"
Zn       0.00000000       0.00000000       0.00000000       0.00000000       0.00000000      -6.67762423
Zn       0.00000000       0.00000000       1.70848485       0.00000000       0.00000000       6.67762423
2
Properties=species:S:1:pos:R:3:forces:R:3 energy=1.2714650242016392 pbc="F F F"
Zn       0.00000000       0.00000000       0.00000000       0.00000000       0.00000000      -6.35238123
Zn       0.00000000       0.00000000       1.76727273       0.00000000       0.00000000       6.35238123
2
Properties=species:S:1:pos:R:3:forces:R:3 energy=0.9174598469537144 pbc="F F F"
Zn       0.00000000       0.00000000       0.00000000       0.00000000       0.00000000      -5.63351345
Zn       0.00000000       0.00000000       1.82606061       0.00000000       0.00000000       5.63351345
2
Properties=species:S:1:pos:R:3:forces:R:3 energy=0.6141316050656042 pbc="F F F"
Zn       0.00000000       0.00000000       0.00000000       0.00000000       0.00000000      -4.66013432
Zn       0.00000000       0.00000000       1.88484848       0.00000000       0.00000000       4.66013432
2
Properties=species:S:1:pos:R:3:forces:R:3 energy=0.37048240630405305 pbc="F F F"
Zn       0.00000000       0.00000000       0.00000000       0.00000000       0.00000000      -3.63772535
Zn       0.00000000       0.00000000       1.94363636       0.00000000       0.00000000       3.63772535
2
Properties=species:S:1:pos:R:3:forces:R:3 energy=0.18378564430413794 pbc="F F F"
Zn       0.00000000       0.00000000       0.00000000       0.00000000       0.00000000      -2.74679995
Zn       0.00000000       0.00000000       2.00242424       0.00000000       0.00000000       2.74679995
2
Properties=species:S:1:pos:R:3:forces:R:3 energy=0.0430380054308699 pbc="F F F"
Zn       0.00000000       0.00000000       0.00000000       0.00000000       0.00000000      -2.08126068
Zn       0.00000000       0.00000000       2.06121212       0.00000000       0.00000000       2.08126068
2
Properties=species:S:1:pos:R:3:forces:R:3 energy=-0.06521845120594397 pbc="F F F"
Zn       0.00000000       0.00000000       0.00000000       0.00000000       0.00000000      -1.63280725
Zn       0.00000000       0.00000000       2.12000000       0.00000000       0.00000000       1.63280725
2
Properties=species:S:1:pos:R:3:forces:R:3 energy=-0.15177199855184856 pbc="F F F"
Zn       0.00000000       0.00000000       0.00000000       0.00000000       0.00000000      -1.32888556
Zn       0.00000000       0.00000000       2.17878788       0.00000000       0.00000000       1.32888556
2
Properties=species:S:1:pos:R:3:forces:R:3 energy=-0.2228026222642952 pbc="F F F"
Zn       0.00000000       0.00000000       0.00000000       0.00000000       0.00000000      -1.09469616
Zn       0.00000000       0.00000000       2.23757576       0.00000000       0.00000000       1.09469616
2
Properties=species:S:1:pos:R:3:forces:R:3 energy=-0.28106252555998096 pbc="F F F"
Zn       0.00000000       0.00000000       0.00000000       0.00000000       0.00000000      -0.89136636
Zn       0.00000000       0.00000000       2.29636364       0.00000000       0.00000000       0.89136636
2
Properties=species:S:1:pos:R:3:forces:R:3 energy=-0.32811492748367893 pbc="F F F"
Zn       0.00000000       0.00000000       0.00000000       0.00000000       0.00000000      -0.71445805
Zn       0.00000000       0.00000000       2.35515152       0.00000000       0.00000000       0.71445805
2
Properties=species:S:1:pos:R:3:forces:R:3 energy=-0.36576409559642786 pbc="F F F"
Zn       0.00000000       0.00000000       0.00000000       0.00000000       0.00000000      -0.57300347
Zn       0.00000000       0.00000000       2.41393939       0.00000000       0.00000000       0.57300347
2
Properties=species:S:1:pos:R:3:forces:R:3 energy=-0.3962785586329169 pbc="F F F"
Zn       0.00000000       0.00000000       0.00000000       0.00000000       0.00000000      -0.47153759
Zn       0.00000000       0.00000000       2.47272727       0.00000000       0.00000000       0.47153759
2
Properties=species:S:1:pos:R:3:forces:R:3 energy=-0.42184039050843236 pbc="F F F"
Zn       0.00000000       0.00000000       0.00000000       0.00000000       0.00000000      -0.40203559
Zn       0.00000000       0.00000000       2.53151515       0.00000000       0.00000000       0.40203559
2
Properties=species:S:1:pos:R:3:forces:R:3 energy=-0.44379989944050396 pbc="F F F"
Zn       0.00000000       0.00000000       0.00000000       0.00000000       0.00000000      -0.34547439
Zn       0.00000000       0.00000000       2.59030303       0.00000000       0.00000000       0.34547439
2
Properties=species:S:1:pos:R:3:forces:R:3 energy=-0.4623940568461294 pbc="F F F"
Zn       0.00000000       0.00000000       0.00000000       0.00000000       0.00000000      -0.28632069
Zn       0.00000000       0.00000000       2.64909091       0.00000000       0.00000000       0.28632069
2
Properties=species:S:1:pos:R:3:forces:R:3 energy=-0.4774500427535003 pbc="F F F"
Zn       0.00000000       0.00000000       0.00000000       0.00000000       0.00000000      -0.22659163
Zn       0.00000000       0.00000000       2.70787879       0.00000000       0.00000000       0.22659163
2
Properties=species:S:1:pos:R:3:forces:R:3 energy=-0.4891744242307075 pbc="F F F"
Zn       0.00000000       0.00000000       0.00000000       0.00000000       0.00000000      -0.17356396
Zn       0.00000000       0.00000000       2.76666667       0.00000000       0.00000000       0.17356396
2
Properties=species:S:1:pos:R:3:forces:R:3 energy=-0.4979767381545955 pbc="F F F"
Zn       0.00000000       0.00000000       0.00000000       0.00000000       0.00000000      -0.12658183
Zn       0.00000000       0.00000000       2.82545455       0.00000000       0.00000000       0.12658183
2
Properties=species:S:1:pos:R:3:forces:R:3 energy=-0.5041102439402136 pbc="F F F"
Zn       0.00000000       0.00000000       0.00000000       0.00000000       0.00000000      -0.08239958
Zn       0.00000000       0.00000000       2.88424242       0.00000000       0.00000000       0.08239958
2
Properties=species:S:1:pos:R:3:forces:R:3 energy=-0.5077012133994485 pbc="F F F"
Zn       0.00000000       0.00000000       0.00000000       0.00000000       0.00000000      -0.04013174
Zn       0.00000000       0.00000000       2.94303030       0.00000000       0.00000000       0.04013174
2
Properties=species:S:1:pos:R:3:forces:R:3 energy=-0.5088815365555585 pbc="F F F"
Zn       0.00000000       0.00000000       0.00000000       0.00000000       0.00000000      -0.00055839
Zn       0.00000000       0.00000000       3.00181818       0.00000000       0.00000000       0.00055839
2
Properties=species:S:1:pos:R:3:forces:R:3 energy=-0.5078390870467262 pbc="F F F"
Zn       0.00000000       0.00000000       0.00000000       0.00000000       0.00000000       0.03535011
Zn       0.00000000       0.00000000       3.06060606       0.00000000       0.00000000      -0.03535011
2
Properties=species:S:1:pos:R:3:forces:R:3 energy=-0.504809711585051 pbc="F F F"
Zn       0.00000000       0.00000000       0.00000000       0.00000000       0.00000000       0.06695003
Zn       0.00000000       0.00000000       3.11939394       0.00000000       0.00000000      -0.06695003
2
Properties=species:S:1:pos:R:3:forces:R:3 energy=-0.5000589720295299 pbc="F F F"
Zn       0.00000000       0.00000000       0.00000000       0.00000000       0.00000000       0.09387682
Zn       0.00000000       0.00000000       3.17818182       0.00000000       0.00000000      -0.09387682
2
Properties=species:S:1:pos:R:3:forces:R:3 energy=-0.4938680280210715 pbc="F F F"
Zn       0.00000000       0.00000000       0.00000000       0.00000000       0.00000000       0.11592105
Zn       0.00000000       0.00000000       3.23696970       0.00000000       0.00000000      -0.11592105
2
Properties=species:S:1:pos:R:3:forces:R:3 energy=-0.48652724107461076 pbc="F F F"
Zn       0.00000000       0.00000000       0.00000000       0.00000000       0.00000000       0.13297758
Zn       0.00000000       0.00000000       3.29575758       0.00000000       0.00000000      -0.13297758
2
Properties=species:S:1:pos:R:3:forces:R:3 energy=-0.47833072050617026 pbc="F F F"
Zn       0.00000000       0.00000000       0.00000000       0.00000000       0.00000000       0.14505219
Zn       0.00000000       0.00000000       3.35454545       0.00000000       0.00000000      -0.14505219
2
Properties=species:S:1:pos:R:3:forces:R:3 energy=-0.4695674118305191 pbc="F F F"
Zn       0.00000000       0.00000000       0.00000000       0.00000000       0.00000000       0.15229374
Zn       0.00000000       0.00000000       3.41333333       0.00000000       0.00000000      -0.15229374
2
Properties=species:S:1:pos:R:3:forces:R:3 energy=-0.4605129302168918 pbc="F F F"
Zn       0.00000000       0.00000000       0.00000000       0.00000000       0.00000000       0.15503308
Zn       0.00000000       0.00000000       3.47212121       0.00000000       0.00000000      -0.15503308
2
Properties=species:S:1:pos:R:3:forces:R:3 energy=-0.4514172920196072 pbc="F F F"
Zn       0.00000000       0.00000000       0.00000000       0.00000000       0.00000000       0.15380281
Zn       0.00000000       0.00000000       3.53090909       0.00000000       0.00000000      -0.15380281
2
Properties=species:S:1:pos:R:3:forces:R:3 energy=-0.4424933298862024 pbc="F F F"
Zn       0.00000000       0.00000000       0.00000000       0.00000000       0.00000000       0.14931893
Zn       0.00000000       0.00000000       3.58969697       0.00000000       0.00000000      -0.14931893
2
Properties=species:S:1:pos:R:3:forces:R:3 energy=-0.43390850403839737 pbc="F F F"
Zn       0.00000000       0.00000000       0.00000000       0.00000000       0.00000000       0.14240776
Zn       0.00000000       0.00000000       3.64848485       0.00000000       0.00000000      -0.14240776
2
Properties=species:S:1:pos:R:3:forces:R:3 energy=-0.42578099054029406 pbc="F F F"
Zn       0.00000000       0.00000000       0.00000000       0.00000000       0.00000000       0.13389468
Zn       0.00000000       0.00000000       3.70727273       0.00000000       0.00000000      -0.13389468
2
Properties=species:S:1:pos:R:3:forces:R:3 energy=-0.41818283084108343 pbc="F F F"
Zn       0.00000000       0.00000000       0.00000000       0.00000000       0.00000000       0.12449992
Zn       0.00000000       0.00000000       3.76606061       0.00000000       0.00000000      -0.12449992
2
Properties=species:S:1:pos:R:3:forces:R:3 energy=-0.41114912802137465 pbc="F F F"
Zn       0.00000000       0.00000000       0.00000000       0.00000000       0.00000000       0.11477750
Zn       0.00000000       0.00000000       3.82484848       0.00000000       0.00000000      -0.11477750
2
Properties=species:S:1:pos:R:3:forces:R:3 energy=-0.4046866248183213 pbc="F F F"
Zn       0.00000000       0.00000000       0.00000000       0.00000000       0.00000000       0.10511149
Zn       0.00000000       0.00000000       3.88363636       0.00000000       0.00000000      -0.10511149
2
Properties=species:S:1:pos:R:3:forces:R:3 energy=-0.3987842873258384 pbc="F F F"
Zn       0.00000000       0.00000000       0.00000000       0.00000000       0.00000000       0.09576023
Zn       0.00000000       0.00000000       3.94242424       0.00000000       0.00000000      -0.09576023
2
Properties=species:S:1:pos:R:3:forces:R:3 energy=-0.39341784645094174 pbc="F F F"
Zn       0.00000000       0.00000000       0.00000000       0.00000000       0.00000000       0.08690730
Zn       0.00000000       0.00000000       4.00121212       0.00000000       0.00000000      -0.08690730
2
Properties=species:S:1:pos:R:3:forces:R:3 energy=-0.38855346172350247 pbc="F F F"
Zn       0.00000000       0.00000000       0.00000000       0.00000000       0.00000000       0.07869991
Zn       0.00000000       0.00000000       4.06000000       0.00000000       0.00000000      -0.07869991
2
Properties=species:S:1:pos:R:3:forces:R:3 energy=-0.3841495774997206 pbc="F F F"
Zn       0.00000000       0.00000000       0.00000000       0.00000000       0.00000000       0.07126059
Zn       0.00000000       0.00000000       4.11878788       0.00000000       0.00000000      -0.07126059
2
Properties=species:S:1:pos:R:3:forces:R:3 energy=-0.38015811317912124 pbc="F F F"
Zn       0.00000000       0.00000000       0.00000000       0.00000000       0.00000000       0.06467666
Zn       0.00000000       0.00000000       4.17757576       0.00000000       0.00000000      -0.06467666
2
Properties=species:S:1:pos:R:3:forces:R:3 energy=-0.3765275906964774 pbc="F F F"
Zn       0.00000000       0.00000000       0.00000000       0.00000000       0.00000000       0.05898343
Zn       0.00000000       0.00000000       4.23636364       0.00000000       0.00000000      -0.05898343
2
Properties=species:S:1:pos:R:3:forces:R:3 energy=-0.37320611171019746 pbc="F F F"
Zn       0.00000000       0.00000000       0.00000000       0.00000000       0.00000000       0.05415180
Zn       0.00000000       0.00000000       4.29515152       0.00000000       0.00000000      -0.05415180
2
Properties=species:S:1:pos:R:3:forces:R:3 energy=-0.3701456137067294 pbc="F F F"
Zn       0.00000000       0.00000000       0.00000000       0.00000000       0.00000000       0.05008817
Zn       0.00000000       0.00000000       4.35393939       0.00000000       0.00000000      -0.05008817
2
Properties=species:S:1:pos:R:3:forces:R:3 energy=-0.367304884618838 pbc="F F F"
Zn       0.00000000       0.00000000       0.00000000       0.00000000       0.00000000       0.04664201
Zn       0.00000000       0.00000000       4.41272727       0.00000000       0.00000000      -0.04664201
2
Properties=species:S:1:pos:R:3:forces:R:3 energy=-0.3646532361388261 pbc="F F F"
Zn       0.00000000       0.00000000       0.00000000       0.00000000       0.00000000       0.04362310
Zn       0.00000000       0.00000000       4.47151515       0.00000000       0.00000000      -0.04362310
2
Properties=species:S:1:pos:R:3:forces:R:3 energy=-0.36217158306175584 pbc="F F F"
Zn       0.00000000       0.00000000       0.00000000       0.00000000       0.00000000       0.04082336
Zn       0.00000000       0.00000000       4.53030303       0.00000000       0.00000000      -0.04082336
2
Properties=species:S:1:pos:R:3:forces:R:3 energy=-0.3598529245823518 pbc="F F F"
Zn       0.00000000       0.00000000       0.00000000       0.00000000       0.00000000       0.03804750
Zn       0.00000000       0.00000000       4.58909091       0.00000000       0.00000000      -0.03804750
2
Properties=species:S:1:pos:R:3:forces:R:3 energy=-0.35770055298783576 pbc="F F F"
Zn       0.00000000       0.00000000       0.00000000       0.00000000       0.00000000       0.03515075
Zn       0.00000000       0.00000000       4.64787879       0.00000000       0.00000000      -0.03515075
2
Properties=species:S:1:pos:R:3:forces:R:3 energy=-0.35572367213255973 pbc="F F F"
Zn       0.00000000       0.00000000       0.00000000       0.00000000       0.00000000       0.03207402
Zn       0.00000000       0.00000000       4.70666667       0.00000000       0.00000000      -0.03207402
2
Properties=species:S:1:pos:R:3:forces:R:3 energy=-0.353932158856898 pbc="F F F"
Zn       0.00000000       0.00000000       0.00000000       0.00000000       0.00000000       0.02886196
Zn       0.00000000       0.00000000       4.76545455       0.00000000       0.00000000      -0.02886196
2
Properties=species:S:1:pos:R:3:forces:R:3 energy=-0.352330228055855 pbc="F F F"
Zn       0.00000000       0.00000000       0.00000000       0.00000000       0.00000000       0.02565098
Zn       0.00000000       0.00000000       4.82424242       0.00000000       0.00000000      -0.02565098
2
Properties=species:S:1:pos:R:3:forces:R:3 energy=-0.3509124708460871 pbc="F F F"
Zn       0.00000000       0.00000000       0.00000000       0.00000000       0.00000000       0.02263148
Zn       0.00000000       0.00000000       4.88303030       0.00000000       0.00000000      -0.02263148
2
Properties=species:S:1:pos:R:3:forces:R:3 energy=-0.3496618609781246 pbc="F F F"
Zn       0.00000000       0.00000000       0.00000000       0.00000000       0.00000000       0.01999223
Zn       0.00000000       0.00000000       4.94181818       0.00000000       0.00000000      -0.01999223
2
Properties=species:S:1:pos:R:3:forces:R:3 energy=-0.3485515533551455 pbc="F F F"
Zn       0.00000000       0.00000000       0.00000000       0.00000000       0.00000000       0.01787611
Zn       0.00000000       0.00000000       5.00060606       0.00000000       0.00000000      -0.01787611
2
Properties=species:S:1:pos:R:3:forces:R:3 energy=-0.3475484485163376 pbc="F F F"
Zn       0.00000000       0.00000000       0.00000000       0.00000000       0.00000000       0.01634942
Zn       0.00000000       0.00000000       5.05939394       0.00000000       0.00000000      -0.01634942
2
Properties=species:S:1:pos:R:3:forces:R:3 energy=-0.3466179765556031 pbc="F F F"
Zn       0.00000000       0.00000000       0.00000000       0.00000000       0.00000000       0.01539681
Zn       0.00000000       0.00000000       5.11818182       0.00000000       0.00000000      -0.01539681
2
Properties=species:S:1:pos:R:3:forces:R:3 energy=-0.3457285575504914 pbc="F F F"
Zn       0.00000000       0.00000000       0.00000000       0.00000000       0.00000000       0.01493166
Zn       0.00000000       0.00000000       5.17696970       0.00000000       0.00000000      -0.01493166
2
Properties=species:S:1:pos:R:3:forces:R:3 energy=-0.34485547644808556 pbc="F F F"
Zn       0.00000000       0.00000000       0.00000000       0.00000000       0.00000000       0.01481658
Zn       0.00000000       0.00000000       5.23575758       0.00000000       0.00000000      -0.01481658
2
Properties=species:S:1:pos:R:3:forces:R:3 energy=-0.3439828516021909 pbc="F F F"
Zn       0.00000000       0.00000000       0.00000000       0.00000000       0.00000000       0.01488679
Zn       0.00000000       0.00000000       5.29454545       0.00000000       0.00000000      -0.01488679
2
Properties=species:S:1:pos:R:3:forces:R:3 energy=-0.3431048309100167 pbc="F F F"
Zn       0.00000000       0.00000000       0.00000000       0.00000000       0.00000000       0.01497385
Zn       0.00000000       0.00000000       5.35333333       0.00000000       0.00000000      -0.01497385
2
Properties=species:S:1:pos:R:3:forces:R:3 energy=-0.3422249269496053 pbc="F F F"
Zn       0.00000000       0.00000000       0.00000000       0.00000000       0.00000000       0.01492828
Zn       0.00000000       0.00000000       5.41212121       0.00000000       0.00000000      -0.01492828
2
Properties=species:S:1:pos:R:3:forces:R:3 energy=-0.3413544000268558 pbc="F F F"
Zn       0.00000000       0.00000000       0.00000000       0.00000000       0.00000000       0.01463971
Zn       0.00000000       0.00000000       5.47090909       0.00000000       0.00000000      -0.01463971
2
Properties=species:S:1:pos:R:3:forces:R:3 energy=-0.3405095686309298 pbc="F F F"
Zn       0.00000000       0.00000000       0.00000000       0.00000000       0.00000000       0.01404977
Zn       0.00000000       0.00000000       5.52969697       0.00000000       0.00000000      -0.01404977
2
Properties=species:S:1:pos:R:3:forces:R:3 energy=-0.33970843256034317 pbc="F F F"
Zn       0.00000000       0.00000000       0.00000000       0.00000000       0.00000000       0.01315827
Zn       0.00000000       0.00000000       5.58848485       0.00000000       0.00000000      -0.01315827
2
Properties=species:S:1:pos:R:3:forces:R:3 energy=-0.3389674943698926 pbc="F F F"
Zn       0.00000000       0.00000000       0.00000000       0.00000000       0.00000000       0.01201956
Zn       0.00000000       0.00000000       5.64727273       0.00000000       0.00000000      -0.01201956
2
Properties=species:S:1:pos:R:3:forces:R:3 energy=-0.33829829625760227 pbc="F F F"
Zn       0.00000000       0.00000000       0.00000000       0.00000000       0.00000000       0.01072805
Zn       0.00000000       0.00000000       5.70606061       0.00000000       0.00000000      -0.01072805
2
Properties=species:S:1:pos:R:3:forces:R:3 energy=-0.337706550545674 pbc="F F F"
Zn       0.00000000       0.00000000       0.00000000       0.00000000       0.00000000       0.00939783
Zn       0.00000000       0.00000000       5.76484848       0.00000000       0.00000000      -0.00939783
2
Properties=species:S:1:pos:R:3:forces:R:3 energy=-0.3371916048225951 pbc="F F F"
Zn       0.00000000       0.00000000       0.00000000       0.00000000       0.00000000       0.00814458
Zn       0.00000000       0.00000000       5.82363636       0.00000000       0.00000000      -0.00814458
2
Properties=species:S:1:pos:R:3:forces:R:3 energy=-0.33674572510349027 pbc="F F F"
Zn       0.00000000       0.00000000       0.00000000       0.00000000       0.00000000       0.00706719
Zn       0.00000000       0.00000000       5.88242424       0.00000000       0.00000000      -0.00706719
2
Properties=species:S:1:pos:R:3:forces:R:3 energy=-0.3363558238648524 pbc="F F F"
Zn       0.00000000       0.00000000       0.00000000       0.00000000       0.00000000       0.00624069
Zn       0.00000000       0.00000000       5.94121212       0.00000000       0.00000000      -0.00624069
2
Properties=species:S:1:pos:R:3:forces:R:3 energy=-0.3360060079971128 pbc="F F F"
Zn       0.00000000       0.00000000       0.00000000       0.00000000       0.00000000       0.00571529
Zn       0.00000000       0.00000000       6.00000000       0.00000000       0.00000000      -0.00571529
