2
Properties=species:S:1:pos:R:3:forces:R:3 energy=18967.963712410605 pbc="F F F"
Ac       0.00000000       0.00000000       0.00000000       0.00000000       0.00000000 -340208.59375000
Ac       0.00000000       0.00000000       0.18000000       0.00000000       0.00000000  340208.59375000
2
Properties=species:S:1:pos:R:3:forces:R:3 energy=7184.271329598106 pbc="F F F"
Ac       0.00000000       0.00000000       0.00000000       0.00000000       0.00000000 -110049.58593750
Ac       0.00000000       0.00000000       0.23878788       0.00000000       0.00000000  110049.58593750
2
Properties=species:S:1:pos:R:3:forces:R:3 energy=3080.0262124106052 pbc="F F F"
Ac       0.00000000       0.00000000       0.00000000       0.00000000       0.00000000  -41830.77343750
Ac       0.00000000       0.00000000       0.29757576       0.00000000       0.00000000   41830.77343750
2
Properties=species:S:1:pos:R:3:forces:R:3 energy=1446.125211434043 pbc="F F F"
Ac       0.00000000       0.00000000       0.00000000       0.00000000       0.00000000  -17598.63476562
Ac       0.00000000       0.00000000       0.35636364       0.00000000       0.00000000   17598.63476562
2
Properties=species:S:1:pos:R:3:forces:R:3 energy=735.0887124106054 pbc="F F F"
Ac       0.00000000       0.00000000       0.00000000       0.00000000       0.00000000   -7980.51416016
Ac       0.00000000       0.00000000       0.41515152       0.00000000       0.00000000    7980.51416016
2
Properties=species:S:1:pos:R:3:forces:R:3 energy=403.5260293178079 pbc="F F F"
Ac       0.00000000       0.00000000       0.00000000       0.00000000       0.00000000   -3850.36254883
Ac       0.00000000       0.00000000       0.47393939       0.00000000       0.00000000    3850.36254883
2
Properties=species:S:1:pos:R:3:forces:R:3 energy=239.64249966739325 pbc="F F F"
Ac       0.00000000       0.00000000       0.00000000       0.00000000       0.00000000   -1959.08776855
Ac       0.00000000       0.00000000       0.53272727       0.00000000       0.00000000    1959.08776855
2
Properties=species:S:1:pos:R:3:forces:R:3 energy=154.52839445545516 pbc="F F F"
Ac       0.00000000       0.00000000       0.00000000       0.00000000       0.00000000   -1041.88964844
Ac       0.00000000       0.00000000       0.59151515       0.00000000       0.00000000    1041.88964844
2
Properties=species:S:1:pos:R:3:forces:R:3 energy=108.53442933187196 pbc="F F F"
Ac       0.00000000       0.00000000       0.00000000       0.00000000       0.00000000    -572.83654785
Ac       0.00000000       0.00000000       0.65030303       0.00000000       0.00000000     572.83654785
2
Properties=species:S:1:pos:R:3:forces:R:3 energy=82.99545080589695 pbc="F F F"
Ac       0.00000000       0.00000000       0.00000000       0.00000000       0.00000000    -320.96066284
Ac       0.00000000       0.00000000       0.70909091       0.00000000       0.00000000     320.96066284
2
Properties=species:S:1:pos:R:3:forces:R:3 energy=68.65999402110887 pbc="F F F"
Ac       0.00000000       0.00000000       0.00000000       0.00000000       0.00000000    -179.85302734
Ac       0.00000000       0.00000000       0.76787879       0.00000000       0.00000000     179.85302734
2
Properties=species:S:1:pos:R:3:forces:R:3 energy=60.695901867840504 pbc="F F F"
Ac       0.00000000       0.00000000       0.00000000       0.00000000       0.00000000     -98.38826752
Ac       0.00000000       0.00000000       0.82666667       0.00000000       0.00000000      98.38826752
2
Properties=species:S:1:pos:R:3:forces:R:3 energy=56.43246284142917 pbc="F F F"
Ac       0.00000000       0.00000000       0.00000000       0.00000000       0.00000000     -50.94750977
Ac       0.00000000       0.00000000       0.88545455       0.00000000       0.00000000      50.94750977
2
Properties=species:S:1:pos:R:3:forces:R:3 energy=54.31196821431178 pbc="F F F"
Ac       0.00000000       0.00000000       0.00000000       0.00000000       0.00000000     -23.76744080
Ac       0.00000000       0.00000000       0.94424242       0.00000000       0.00000000      23.76744080
2
Properties=species:S:1:pos:R:3:forces:R:3 energy=53.403917955970755 pbc="F F F"
Ac       0.00000000       0.00000000       0.00000000       0.00000000       0.00000000      -8.63022041
Ac       0.00000000       0.00000000       1.00303030       0.00000000       0.00000000       8.63022041
2
Properties=species:S:1:pos:R:3:forces:R:3 energy=53.16113192863871 pbc="F F F"
Ac       0.00000000       0.00000000       0.00000000       0.00000000       0.00000000      -0.52231133
Ac       0.00000000       0.00000000       1.06181818       0.00000000       0.00000000       0.52231133
2
Properties=species:S:1:pos:R:3:forces:R:3 energy=53.25727044864982 pbc="F F F"
Ac       0.00000000       0.00000000       0.00000000       0.00000000       0.00000000       3.17843461
Ac       0.00000000       0.00000000       1.12060606       0.00000000       0.00000000      -3.17843461
2
Properties=species:S:1:pos:R:3:forces:R:3 energy=53.46791487586738 pbc="F F F"
Ac       0.00000000       0.00000000       0.00000000       0.00000000       0.00000000       3.43653417
Ac       0.00000000       0.00000000       1.17939394       0.00000000       0.00000000      -3.43653417
2
Properties=species:S:1:pos:R:3:forces:R:3 energy=53.59503289449742 pbc="F F F"
Ac       0.00000000       0.00000000       0.00000000       0.00000000       0.00000000       0.30569258
Ac       0.00000000       0.00000000       1.23818182       0.00000000       0.00000000      -0.30569258
2
Properties=species:S:1:pos:R:3:forces:R:3 energy=53.43391645585988 pbc="F F F"
Ac       0.00000000       0.00000000       0.00000000       0.00000000       0.00000000      -6.38514137
Ac       0.00000000       0.00000000       1.29696970       0.00000000       0.00000000       6.38514137
2
Properties=species:S:1:pos:R:3:forces:R:3 energy=52.7760389739692 pbc="F F F"
Ac       0.00000000       0.00000000       0.00000000       0.00000000       0.00000000     -16.53826714
Ac       0.00000000       0.00000000       1.35575758       0.00000000       0.00000000      16.53826714
2
Properties=species:S:1:pos:R:3:forces:R:3 energy=51.43457191157187 pbc="F F F"
Ac       0.00000000       0.00000000       0.00000000       0.00000000       0.00000000     -29.46941376
Ac       0.00000000       0.00000000       1.41454545       0.00000000       0.00000000      29.46941376
2
Properties=species:S:1:pos:R:3:forces:R:3 energy=49.28230279493898 pbc="F F F"
Ac       0.00000000       0.00000000       0.00000000       0.00000000       0.00000000     -43.86502075
Ac       0.00000000       0.00000000       1.47333333       0.00000000       0.00000000      43.86502075
2
Properties=species:S:1:pos:R:3:forces:R:3 energy=46.279352905568565 pbc="F F F"
Ac       0.00000000       0.00000000       0.00000000       0.00000000       0.00000000     -58.15185928
Ac       0.00000000       0.00000000       1.53212121       0.00000000       0.00000000      58.15185928
2
Properties=species:S:1:pos:R:3:forces:R:3 energy=42.47545830442372 pbc="F F F"
Ac       0.00000000       0.00000000       0.00000000       0.00000000       0.00000000     -70.89610291
Ac       0.00000000       0.00000000       1.59090909       0.00000000       0.00000000      70.89610291
2
Properties=species:S:1:pos:R:3:forces:R:3 energy=37.9972632654101 pbc="F F F"
Ac       0.00000000       0.00000000       0.00000000       0.00000000       0.00000000     -80.90977478
Ac       0.00000000       0.00000000       1.64969697       0.00000000       0.00000000      80.90977478
2
Properties=species:S:1:pos:R:3:forces:R:3 energy=33.038409552495665 pbc="F F F"
Ac       0.00000000       0.00000000       0.00000000       0.00000000       0.00000000     -87.02906036
Ac       0.00000000       0.00000000       1.70848485       0.00000000       0.00000000      87.02906036
2
Properties=species:S:1:pos:R:3:forces:R:3 energy=27.871756891100137 pbc="F F F"
Ac       0.00000000       0.00000000       0.00000000       0.00000000       0.00000000     -87.67938995
Ac       0.00000000       0.00000000       1.76727273       0.00000000       0.00000000      87.67938995
2
Properties=species:S:1:pos:R:3:forces:R:3 energy=22.866753128737578 pbc="F F F"
Ac       0.00000000       0.00000000       0.00000000       0.00000000       0.00000000     -81.41475677
Ac       0.00000000       0.00000000       1.82606061       0.00000000       0.00000000      81.41475677
2
Properties=species:S:1:pos:R:3:forces:R:3 energy=18.41500189998337 pbc="F F F"
Ac       0.00000000       0.00000000       0.00000000       0.00000000       0.00000000     -69.38931274
Ac       0.00000000       0.00000000       1.88484848       0.00000000       0.00000000      69.38931274
2
Properties=species:S:1:pos:R:3:forces:R:3 energy=14.732435312644439 pbc="F F F"
Ac       0.00000000       0.00000000       0.00000000       0.00000000       0.00000000     -56.09447479
Ac       0.00000000       0.00000000       1.94363636       0.00000000       0.00000000      56.09447479
2
Properties=species:S:1:pos:R:3:forces:R:3 energy=11.769967939724685 pbc="F F F"
Ac       0.00000000       0.00000000       0.00000000       0.00000000       0.00000000     -45.17807770
Ac       0.00000000       0.00000000       2.00242424       0.00000000       0.00000000      45.17807770
2
Properties=species:S:1:pos:R:3:forces:R:3 energy=9.375426992352514 pbc="F F F"
Ac       0.00000000       0.00000000       0.00000000       0.00000000       0.00000000     -36.53251266
Ac       0.00000000       0.00000000       2.06121212       0.00000000       0.00000000      36.53251266
2
Properties=species:S:1:pos:R:3:forces:R:3 energy=7.455338348502432 pbc="F F F"
Ac       0.00000000       0.00000000       0.00000000       0.00000000       0.00000000     -28.94376945
Ac       0.00000000       0.00000000       2.12000000       0.00000000       0.00000000      28.94376945
2
Properties=species:S:1:pos:R:3:forces:R:3 energy=5.946309660453917 pbc="F F F"
Ac       0.00000000       0.00000000       0.00000000       0.00000000       0.00000000     -22.69458199
Ac       0.00000000       0.00000000       2.17878788       0.00000000       0.00000000      22.69458199
2
Properties=species:S:1:pos:R:3:forces:R:3 energy=4.746557479876489 pbc="F F F"
Ac       0.00000000       0.00000000       0.00000000       0.00000000       0.00000000     -18.46981621
Ac       0.00000000       0.00000000       2.23757576       0.00000000       0.00000000      18.46981621
2
Properties=species:S:1:pos:R:3:forces:R:3 energy=3.7391836755692553 pbc="F F F"
Ac       0.00000000       0.00000000       0.00000000       0.00000000       0.00000000     -16.03897095
Ac       0.00000000       0.00000000       2.29636364       0.00000000       0.00000000      16.03897095
2
Properties=species:S:1:pos:R:3:forces:R:3 energy=2.8413514975309333 pbc="F F F"
Ac       0.00000000       0.00000000       0.00000000       0.00000000       0.00000000     -14.60442924
Ac       0.00000000       0.00000000       2.35515152       0.00000000       0.00000000      14.60442924
2
Properties=species:S:1:pos:R:3:forces:R:3 energy=2.0164841645251776 pbc="F F F"
Ac       0.00000000       0.00000000       0.00000000       0.00000000       0.00000000     -13.46671581
Ac       0.00000000       0.00000000       2.41393939       0.00000000       0.00000000      13.46671581
2
Properties=species:S:1:pos:R:3:forces:R:3 energy=1.2594663167424602 pbc="F F F"
Ac       0.00000000       0.00000000       0.00000000       0.00000000       0.00000000     -12.26328659
Ac       0.00000000       0.00000000       2.47272727       0.00000000       0.00000000      12.26328659
2
Properties=species:S:1:pos:R:3:forces:R:3 energy=0.5775824809111694 pbc="F F F"
Ac       0.00000000       0.00000000       0.00000000       0.00000000       0.00000000     -10.91306305
Ac       0.00000000       0.00000000       2.53151515       0.00000000       0.00000000      10.91306305
2
Properties=species:S:1:pos:R:3:forces:R:3 energy=-0.02193360456534825 pbc="F F F"
Ac       0.00000000       0.00000000       0.00000000       0.00000000       0.00000000      -9.47602558
Ac       0.00000000       0.00000000       2.59030303       0.00000000       0.00000000       9.47602558
2
Properties=species:S:1:pos:R:3:forces:R:3 energy=-0.5366599054425284 pbc="F F F"
Ac       0.00000000       0.00000000       0.00000000       0.00000000       0.00000000      -8.04282570
Ac       0.00000000       0.00000000       2.64909091       0.00000000       0.00000000       8.04282570
2
Properties=species:S:1:pos:R:3:forces:R:3 energy=-0.9690778536931688 pbc="F F F"
Ac       0.00000000       0.00000000       0.00000000       0.00000000       0.00000000      -6.68560839
Ac       0.00000000       0.00000000       2.70787879       0.00000000       0.00000000       6.68560839
2
Properties=species:S:1:pos:R:3:forces:R:3 energy=-1.3251265087196216 pbc="F F F"
Ac       0.00000000       0.00000000       0.00000000       0.00000000       0.00000000      -5.45032740
Ac       0.00000000       0.00000000       2.76666667       0.00000000       0.00000000       5.45032740
2
Properties=species:S:1:pos:R:3:forces:R:3 energy=-1.6128249241185906 pbc="F F F"
Ac       0.00000000       0.00000000       0.00000000       0.00000000       0.00000000      -4.36361217
Ac       0.00000000       0.00000000       2.82545455       0.00000000       0.00000000       4.36361217
2
Properties=species:S:1:pos:R:3:forces:R:3 energy=-1.8413846129296463 pbc="F F F"
Ac       0.00000000       0.00000000       0.00000000       0.00000000       0.00000000      -3.44003153
Ac       0.00000000       0.00000000       2.88424242       0.00000000       0.00000000       3.44003153
2
Properties=species:S:1:pos:R:3:forces:R:3 energy=-2.020604896527846 pbc="F F F"
Ac       0.00000000       0.00000000       0.00000000       0.00000000       0.00000000      -2.68526340
Ac       0.00000000       0.00000000       2.94303030       0.00000000       0.00000000       2.68526340
2
Properties=species:S:1:pos:R:3:forces:R:3 energy=-2.160341287045182 pbc="F F F"
Ac       0.00000000       0.00000000       0.00000000       0.00000000       0.00000000      -2.09510398
Ac       0.00000000       0.00000000       3.00181818       0.00000000       0.00000000       2.09510398
2
Properties=species:S:1:pos:R:3:forces:R:3 energy=-2.2698487178769877 pbc="F F F"
Ac       0.00000000       0.00000000       0.00000000       0.00000000       0.00000000      -1.65308619
Ac       0.00000000       0.00000000       3.06060606       0.00000000       0.00000000       1.65308619
2
Properties=species:S:1:pos:R:3:forces:R:3 energy=-2.3570530782242787 pbc="F F F"
Ac       0.00000000       0.00000000       0.00000000       0.00000000       0.00000000      -1.33073211
Ac       0.00000000       0.00000000       3.11939394       0.00000000       0.00000000       1.33073211
2
Properties=species:S:1:pos:R:3:forces:R:3 energy=-2.4279674607058994 pbc="F F F"
Ac       0.00000000       0.00000000       0.00000000       0.00000000       0.00000000      -1.09302664
Ac       0.00000000       0.00000000       3.17818182       0.00000000       0.00000000       1.09302664
2
Properties=species:S:1:pos:R:3:forces:R:3 energy=-2.486576982178147 pbc="F F F"
Ac       0.00000000       0.00000000       0.00000000       0.00000000       0.00000000      -0.90728569
Ac       0.00000000       0.00000000       3.23696970       0.00000000       0.00000000       0.90728569
2
Properties=species:S:1:pos:R:3:forces:R:3 energy=-2.535198456000323 pbc="F F F"
Ac       0.00000000       0.00000000       0.00000000       0.00000000       0.00000000      -0.75028914
Ac       0.00000000       0.00000000       3.29575758       0.00000000       0.00000000       0.75028914
2
Properties=species:S:1:pos:R:3:forces:R:3 energy=-2.5751124880371856 pbc="F F F"
Ac       0.00000000       0.00000000       0.00000000       0.00000000       0.00000000      -0.60983700
Ac       0.00000000       0.00000000       3.35454545       0.00000000       0.00000000       0.60983700
2
Properties=species:S:1:pos:R:3:forces:R:3 energy=-2.6071359496817537 pbc="F F F"
Ac       0.00000000       0.00000000       0.00000000       0.00000000       0.00000000      -0.48150715
Ac       0.00000000       0.00000000       3.41333333       0.00000000       0.00000000       0.48150715
2
Properties=species:S:1:pos:R:3:forces:R:3 energy=-2.6319392196132667 pbc="F F F"
Ac       0.00000000       0.00000000       0.00000000       0.00000000       0.00000000      -0.36403060
Ac       0.00000000       0.00000000       3.47212121       0.00000000       0.00000000       0.36403060
2
Properties=species:S:1:pos:R:3:forces:R:3 energy=-2.6501206994426516 pbc="F F F"
Ac       0.00000000       0.00000000       0.00000000       0.00000000       0.00000000      -0.25586674
Ac       0.00000000       0.00000000       3.53090909       0.00000000       0.00000000       0.25586674
2
Properties=species:S:1:pos:R:3:forces:R:3 energy=-2.6621418244748343 pbc="F F F"
Ac       0.00000000       0.00000000       0.00000000       0.00000000       0.00000000      -0.15371571
Ac       0.00000000       0.00000000       3.58969697       0.00000000       0.00000000       0.15371571
2
Properties=species:S:1:pos:R:3:forces:R:3 energy=-2.6682193745387166 pbc="F F F"
Ac       0.00000000       0.00000000       0.00000000       0.00000000       0.00000000      -0.05285959
Ac       0.00000000       0.00000000       3.64848485       0.00000000       0.00000000       0.05285959
2
Properties=species:S:1:pos:R:3:forces:R:3 energy=-2.6682924328390856 pbc="F F F"
Ac       0.00000000       0.00000000       0.00000000       0.00000000       0.00000000       0.05122520
Ac       0.00000000       0.00000000       3.70727273       0.00000000       0.00000000      -0.05122520
2
Properties=species:S:1:pos:R:3:forces:R:3 energy=-2.6620837989156176 pbc="F F F"
Ac       0.00000000       0.00000000       0.00000000       0.00000000       0.00000000       0.16098331
Ac       0.00000000       0.00000000       3.76606061       0.00000000       0.00000000      -0.16098331
2
Properties=species:S:1:pos:R:3:forces:R:3 energy=-2.649264233701302 pbc="F F F"
Ac       0.00000000       0.00000000       0.00000000       0.00000000       0.00000000       0.27573660
Ac       0.00000000       0.00000000       3.82484848       0.00000000       0.00000000      -0.27573660
2
Properties=species:S:1:pos:R:3:forces:R:3 energy=-2.6296336829851352 pbc="F F F"
Ac       0.00000000       0.00000000       0.00000000       0.00000000       0.00000000       0.39195538
Ac       0.00000000       0.00000000       3.88363636       0.00000000       0.00000000      -0.39195538
2
Properties=species:S:1:pos:R:3:forces:R:3 energy=-2.6032536250661 pbc="F F F"
Ac       0.00000000       0.00000000       0.00000000       0.00000000       0.00000000       0.50443602
Ac       0.00000000       0.00000000       3.94242424       0.00000000       0.00000000      -0.50443602
2
Properties=species:S:1:pos:R:3:forces:R:3 energy=-2.5705014785384486 pbc="F F F"
Ac       0.00000000       0.00000000       0.00000000       0.00000000       0.00000000       0.60792321
Ac       0.00000000       0.00000000       4.00121212       0.00000000       0.00000000      -0.60792321
2
Properties=species:S:1:pos:R:3:forces:R:3 energy=-2.5320309407803645 pbc="F F F"
Ac       0.00000000       0.00000000       0.00000000       0.00000000       0.00000000       0.69848645
Ac       0.00000000       0.00000000       4.06000000       0.00000000       0.00000000      -0.69848645
2
Properties=species:S:1:pos:R:3:forces:R:3 energy=-2.4886686743455706 pbc="F F F"
Ac       0.00000000       0.00000000       0.00000000       0.00000000       0.00000000       0.77421993
Ac       0.00000000       0.00000000       4.11878788       0.00000000       0.00000000      -0.77421993
2
Properties=species:S:1:pos:R:3:forces:R:3 energy=-2.441293141975899 pbc="F F F"
Ac       0.00000000       0.00000000       0.00000000       0.00000000       0.00000000       0.83509099
Ac       0.00000000       0.00000000       4.17757576       0.00000000       0.00000000      -0.83509099
2
Properties=species:S:1:pos:R:3:forces:R:3 energy=-2.39075226349248 pbc="F F F"
Ac       0.00000000       0.00000000       0.00000000       0.00000000       0.00000000       0.88216048
Ac       0.00000000       0.00000000       4.23636364       0.00000000       0.00000000      -0.88216048
2
Properties=species:S:1:pos:R:3:forces:R:3 energy=-2.337816084540096 pbc="F F F"
Ac       0.00000000       0.00000000       0.00000000       0.00000000       0.00000000       0.91674906
Ac       0.00000000       0.00000000       4.29515152       0.00000000       0.00000000      -0.91674906
2
Properties=species:S:1:pos:R:3:forces:R:3 energy=-2.2831884210836955 pbc="F F F"
Ac       0.00000000       0.00000000       0.00000000       0.00000000       0.00000000       0.93993354
Ac       0.00000000       0.00000000       4.35393939       0.00000000       0.00000000      -0.93993354
2
Properties=species:S:1:pos:R:3:forces:R:3 energy=-2.227511176285391 pbc="F F F"
Ac       0.00000000       0.00000000       0.00000000       0.00000000       0.00000000       0.95252168
Ac       0.00000000       0.00000000       4.41272727       0.00000000       0.00000000      -0.95252168
2
Properties=species:S:1:pos:R:3:forces:R:3 energy=-2.1713849205299947 pbc="F F F"
Ac       0.00000000       0.00000000       0.00000000       0.00000000       0.00000000       0.95540059
Ac       0.00000000       0.00000000       4.47151515       0.00000000       0.00000000      -0.95540059
2
Properties=species:S:1:pos:R:3:forces:R:3 energy=-2.115341699035713 pbc="F F F"
Ac       0.00000000       0.00000000       0.00000000       0.00000000       0.00000000       0.94996578
Ac       0.00000000       0.00000000       4.53030303       0.00000000       0.00000000      -0.94996578
2
Properties=species:S:1:pos:R:3:forces:R:3 energy=-2.0598128021644064 pbc="F F F"
Ac       0.00000000       0.00000000       0.00000000       0.00000000       0.00000000       0.93841553
Ac       0.00000000       0.00000000       4.58909091       0.00000000       0.00000000      -0.93841553
2
Properties=species:S:1:pos:R:3:forces:R:3 energy=-2.0050690415675305 pbc="F F F"
Ac       0.00000000       0.00000000       0.00000000       0.00000000       0.00000000       0.92377293
Ac       0.00000000       0.00000000       4.64787879       0.00000000       0.00000000      -0.92377293
2
Properties=species:S:1:pos:R:3:forces:R:3 energy=-1.9511918203426342 pbc="F F F"
Ac       0.00000000       0.00000000       0.00000000       0.00000000       0.00000000       0.90946913
Ac       0.00000000       0.00000000       4.70666667       0.00000000       0.00000000      -0.90946913
2
Properties=species:S:1:pos:R:3:forces:R:3 energy=-1.8980697329847662 pbc="F F F"
Ac       0.00000000       0.00000000       0.00000000       0.00000000       0.00000000       0.89859551
Ac       0.00000000       0.00000000       4.76545455       0.00000000       0.00000000      -0.89859551
2
Properties=species:S:1:pos:R:3:forces:R:3 energy=-1.845434798674853 pbc="F F F"
Ac       0.00000000       0.00000000       0.00000000       0.00000000       0.00000000       0.89281482
Ac       0.00000000       0.00000000       4.82424242       0.00000000       0.00000000      -0.89281482
2
Properties=species:S:1:pos:R:3:forces:R:3 energy=-1.7930114677239433 pbc="F F F"
Ac       0.00000000       0.00000000       0.00000000       0.00000000       0.00000000       0.89137578
Ac       0.00000000       0.00000000       4.88303030       0.00000000       0.00000000      -0.89137578
2
Properties=species:S:1:pos:R:3:forces:R:3 energy=-1.7406134246840181 pbc="F F F"
Ac       0.00000000       0.00000000       0.00000000       0.00000000       0.00000000       0.89085841
Ac       0.00000000       0.00000000       4.94181818       0.00000000       0.00000000      -0.89085841
2
Properties=species:S:1:pos:R:3:forces:R:3 energy=-1.6883359247851406 pbc="F F F"
Ac       0.00000000       0.00000000       0.00000000       0.00000000       0.00000000       0.88687205
Ac       0.00000000       0.00000000       5.00060606       0.00000000       0.00000000      -0.88687205
2
Properties=species:S:1:pos:R:3:forces:R:3 energy=-1.6364185523649633 pbc="F F F"
Ac       0.00000000       0.00000000       0.00000000       0.00000000       0.00000000       0.87907118
Ac       0.00000000       0.00000000       5.05939394       0.00000000       0.00000000      -0.87907118
2
Properties=species:S:1:pos:R:3:forces:R:3 energy=-1.5848480028446543 pbc="F F F"
Ac       0.00000000       0.00000000       0.00000000       0.00000000       0.00000000       0.87840235
Ac       0.00000000       0.00000000       5.11818182       0.00000000       0.00000000      -0.87840235
2
Properties=species:S:1:pos:R:3:forces:R:3 energy=-1.5325499946332564 pbc="F F F"
Ac       0.00000000       0.00000000       0.00000000       0.00000000       0.00000000       0.90785956
Ac       0.00000000       0.00000000       5.17696970       0.00000000       0.00000000      -0.90785956
2
Properties=species:S:1:pos:R:3:forces:R:3 energy=-1.4771796243368749 pbc="F F F"
Ac       0.00000000       0.00000000       0.00000000       0.00000000       0.00000000       0.98320651
Ac       0.00000000       0.00000000       5.23575758       0.00000000       0.00000000      -0.98320651
2
Properties=species:S:1:pos:R:3:forces:R:3 energy=-1.4164820267573046 pbc="F F F"
Ac       0.00000000       0.00000000       0.00000000       0.00000000       0.00000000       1.08083475
Ac       0.00000000       0.00000000       5.29454545       0.00000000       0.00000000      -1.08083475
2
Properties=species:S:1:pos:R:3:forces:R:3 energy=-1.3508926946285957 pbc="F F F"
Ac       0.00000000       0.00000000       0.00000000       0.00000000       0.00000000       1.13847327
Ac       0.00000000       0.00000000       5.35333333       0.00000000       0.00000000      -1.13847327
2
Properties=species:S:1:pos:R:3:forces:R:3 energy=-1.28429423069046 pbc="F F F"
Ac       0.00000000       0.00000000       0.00000000       0.00000000       0.00000000       1.11422396
Ac       0.00000000       0.00000000       5.41212121       0.00000000       0.00000000      -1.11422396
2
Properties=species:S:1:pos:R:3:forces:R:3 energy=-1.2207511608979633 pbc="F F F"
Ac       0.00000000       0.00000000       0.00000000       0.00000000       0.00000000       1.04871464
Ac       0.00000000       0.00000000       5.47090909       0.00000000       0.00000000      -1.04871464
2
Properties=species:S:1:pos:R:3:forces:R:3 energy=-1.159509951861188 pbc="F F F"
Ac       0.00000000       0.00000000       0.00000000       0.00000000       0.00000000       1.05815208
Ac       0.00000000       0.00000000       5.52969697       0.00000000       0.00000000      -1.05815208
2
Properties=species:S:1:pos:R:3:forces:R:3 energy=-1.0926911875236625 pbc="F F F"
Ac       0.00000000       0.00000000       0.00000000       0.00000000       0.00000000       1.24908566
Ac       0.00000000       0.00000000       5.58848485       0.00000000       0.00000000      -1.24908566
2
Properties=species:S:1:pos:R:3:forces:R:3 energy=-1.0095202371564331 pbc="F F F"
Ac       0.00000000       0.00000000       0.00000000       0.00000000       0.00000000       1.59547114
Ac       0.00000000       0.00000000       5.64727273       0.00000000       0.00000000      -1.59547114
2
Properties=species:S:1:pos:R:3:forces:R:3 energy=-0.9061583250900742 pbc="F F F"
Ac       0.00000000       0.00000000       0.00000000       0.00000000       0.00000000       1.88587248
Ac       0.00000000       0.00000000       5.70606061       0.00000000       0.00000000      -1.88587248
2
Properties=species:S:1:pos:R:3:forces:R:3 energy=-0.794026784691394 pbc="F F F"
Ac       0.00000000       0.00000000       0.00000000       0.00000000       0.00000000       1.85170579
Ac       0.00000000       0.00000000       5.76484848       0.00000000       0.00000000      -1.85170579
2
Properties=species:S:1:pos:R:3:forces:R:3 energy=-0.6964544925797814 pbc="F F F"
Ac       0.00000000       0.00000000       0.00000000       0.00000000       0.00000000       1.41200757
Ac       0.00000000       0.00000000       5.82363636       0.00000000       0.00000000      -1.41200757
2
Properties=species:S:1:pos:R:3:forces:R:3 energy=-0.6323838217447372 pbc="F F F"
Ac       0.00000000       0.00000000       0.00000000       0.00000000       0.00000000       0.76931119
Ac       0.00000000       0.00000000       5.88242424       0.00000000       0.00000000      -0.76931119
2
Properties=species:S:1:pos:R:3:forces:R:3 energy=-0.6038725112982332 pbc="F F F"
Ac       0.00000000       0.00000000       0.00000000       0.00000000       0.00000000       0.23683383
Ac       0.00000000       0.00000000       5.94121212       0.00000000       0.00000000      -0.23683383
2
Properties=species:S:1:pos:R:3:forces:R:3 energy=-0.5978550879299225 pbc="F F F"
Ac       0.00000000       0.00000000       0.00000000       0.00000000       0.00000000       0.03497398
Ac       0.00000000       0.00000000       6.00000000       0.00000000       0.00000000      -0.03497398
