2
Properties=species:S:1:pos:R:3:forces:R:3 energy=10108.920630273382 pbc="F F F"
Ba       0.00000000       0.00000000       0.00000000       0.00000000       0.00000000 -171356.12500000
Ba       0.00000000       0.00000000       0.18000000       0.00000000       0.00000000  171356.12500000
2
Properties=species:S:1:pos:R:3:forces:R:3 energy=4051.564184960882 pbc="F F F"
Ba       0.00000000       0.00000000       0.00000000       0.00000000       0.00000000  -58270.10937500
Ba       0.00000000       0.00000000       0.23878788       0.00000000       0.00000000   58270.10937500
2
Properties=species:S:1:pos:R:3:forces:R:3 energy=1830.0964115233821 pbc="F F F"
Ba       0.00000000       0.00000000       0.00000000       0.00000000       0.00000000  -23342.76953125
Ba       0.00000000       0.00000000       0.29757576       0.00000000       0.00000000   23342.76953125
2
Properties=species:S:1:pos:R:3:forces:R:3 energy=897.3059452147884 pbc="F F F"
Ba       0.00000000       0.00000000       0.00000000       0.00000000       0.00000000  -10349.82031250
Ba       0.00000000       0.00000000       0.35636364       0.00000000       0.00000000   10349.82031250
2
Properties=species:S:1:pos:R:3:forces:R:3 energy=470.05148964838213 pbc="F F F"
Ba       0.00000000       0.00000000       0.00000000       0.00000000       0.00000000   -4924.78759766
Ba       0.00000000       0.00000000       0.41515152       0.00000000       0.00000000    4924.78759766
2
Properties=species:S:1:pos:R:3:forces:R:3 energy=261.54883461908526 pbc="F F F"
Ba       0.00000000       0.00000000       0.00000000       0.00000000       0.00000000   -2476.47070312
Ba       0.00000000       0.00000000       0.47393939       0.00000000       0.00000000    2476.47070312
2
Properties=species:S:1:pos:R:3:forces:R:3 energy=154.44640238077994 pbc="F F F"
Ba       0.00000000       0.00000000       0.00000000       0.00000000       0.00000000   -1304.57153320
Ba       0.00000000       0.00000000       0.53272727       0.00000000       0.00000000    1304.57153320
2
Properties=species:S:1:pos:R:3:forces:R:3 energy=96.98086436854891 pbc="F F F"
Ba       0.00000000       0.00000000       0.00000000       0.00000000       0.00000000    -715.06011963
Ba       0.00000000       0.00000000       0.59151515       0.00000000       0.00000000     715.06011963
2
Properties=species:S:1:pos:R:3:forces:R:3 energy=64.99818310680612 pbc="F F F"
Ba       0.00000000       0.00000000       0.00000000       0.00000000       0.00000000    -404.81686401
Ba       0.00000000       0.00000000       0.65030303       0.00000000       0.00000000     404.81686401
2
Properties=species:S:1:pos:R:3:forces:R:3 energy=46.685816646553 pbc="F F F"
Ba       0.00000000       0.00000000       0.00000000       0.00000000       0.00000000    -234.51225281
Ba       0.00000000       0.00000000       0.70909091       0.00000000       0.00000000     234.51225281
2
Properties=species:S:1:pos:R:3:forces:R:3 energy=36.011759690402215 pbc="F F F"
Ba       0.00000000       0.00000000       0.00000000       0.00000000       0.00000000    -137.38082886
Ba       0.00000000       0.00000000       0.76787879       0.00000000       0.00000000     137.38082886
2
Properties=species:S:1:pos:R:3:forces:R:3 energy=29.759224887425653 pbc="F F F"
Ba       0.00000000       0.00000000       0.00000000       0.00000000       0.00000000     -80.24592590
Ba       0.00000000       0.00000000       0.82666667       0.00000000       0.00000000      80.24592590
2
Properties=species:S:1:pos:R:3:forces:R:3 energy=26.13380537209674 pbc="F F F"
Ba       0.00000000       0.00000000       0.00000000       0.00000000       0.00000000     -45.95796967
Ba       0.00000000       0.00000000       0.88545455       0.00000000       0.00000000      45.95796967
2
Properties=species:S:1:pos:R:3:forces:R:3 energy=24.095065340728574 pbc="F F F"
Ba       0.00000000       0.00000000       0.00000000       0.00000000       0.00000000     -25.08952332
Ba       0.00000000       0.00000000       0.94424242       0.00000000       0.00000000      25.08952332
2
Properties=species:S:1:pos:R:3:forces:R:3 energy=23.031012936339504 pbc="F F F"
Ba       0.00000000       0.00000000       0.00000000       0.00000000       0.00000000     -12.09886932
Ba       0.00000000       0.00000000       1.00303030       0.00000000       0.00000000      12.09886932
2
Properties=species:S:1:pos:R:3:forces:R:3 energy=22.581567452606684 pbc="F F F"
Ba       0.00000000       0.00000000       0.00000000       0.00000000       0.00000000      -3.80134773
Ba       0.00000000       0.00000000       1.06181818       0.00000000       0.00000000       3.80134773
2
Properties=species:S:1:pos:R:3:forces:R:3 energy=22.525543230668585 pbc="F F F"
Ba       0.00000000       0.00000000       0.00000000       0.00000000       0.00000000       1.48408675
Ba       0.00000000       0.00000000       1.12060606       0.00000000       0.00000000      -1.48408675
2
Properties=species:S:1:pos:R:3:forces:R:3 energy=22.714024026018375 pbc="F F F"
Ba       0.00000000       0.00000000       0.00000000       0.00000000       0.00000000       4.60833263
Ba       0.00000000       0.00000000       1.17939394       0.00000000       0.00000000      -4.60833263
2
Properties=species:S:1:pos:R:3:forces:R:3 energy=23.031403568686518 pbc="F F F"
Ba       0.00000000       0.00000000       0.00000000       0.00000000       0.00000000       5.88610458
Ba       0.00000000       0.00000000       1.23818182       0.00000000       0.00000000      -5.88610458
2
Properties=species:S:1:pos:R:3:forces:R:3 energy=23.369813689435517 pbc="F F F"
Ba       0.00000000       0.00000000       0.00000000       0.00000000       0.00000000       5.31003189
Ba       0.00000000       0.00000000       1.29696970       0.00000000       0.00000000      -5.31003189
2
Properties=species:S:1:pos:R:3:forces:R:3 energy=23.617735553744662 pbc="F F F"
Ba       0.00000000       0.00000000       0.00000000       0.00000000       0.00000000       2.80091786
Ba       0.00000000       0.00000000       1.35575758       0.00000000       0.00000000      -2.80091786
2
Properties=species:S:1:pos:R:3:forces:R:3 energy=23.663120109515912 pbc="F F F"
Ba       0.00000000       0.00000000       0.00000000       0.00000000       0.00000000      -1.53372550
Ba       0.00000000       0.00000000       1.41454545       0.00000000       0.00000000       1.53372550
2
Properties=species:S:1:pos:R:3:forces:R:3 energy=23.410426394396914 pbc="F F F"
Ba       0.00000000       0.00000000       0.00000000       0.00000000       0.00000000      -7.23788643
Ba       0.00000000       0.00000000       1.47333333       0.00000000       0.00000000       7.23788643
2
Properties=species:S:1:pos:R:3:forces:R:3 energy=22.79820540816951 pbc="F F F"
Ba       0.00000000       0.00000000       0.00000000       0.00000000       0.00000000     -13.65306091
Ba       0.00000000       0.00000000       1.53212121       0.00000000       0.00000000      13.65306091
2
Properties=species:S:1:pos:R:3:forces:R:3 energy=21.803916168047557 pbc="F F F"
Ba       0.00000000       0.00000000       0.00000000       0.00000000       0.00000000     -20.13137627
Ba       0.00000000       0.00000000       1.59090909       0.00000000       0.00000000      20.13137627
2
Properties=species:S:1:pos:R:3:forces:R:3 energy=20.442701165512112 pbc="F F F"
Ba       0.00000000       0.00000000       0.00000000       0.00000000       0.00000000     -26.02302742
Ba       0.00000000       0.00000000       1.64969697       0.00000000       0.00000000      26.02302742
2
Properties=species:S:1:pos:R:3:forces:R:3 energy=18.769621823258582 pbc="F F F"
Ba       0.00000000       0.00000000       0.00000000       0.00000000       0.00000000     -30.61996651
Ba       0.00000000       0.00000000       1.70848485       0.00000000       0.00000000      30.61996651
2
Properties=species:S:1:pos:R:3:forces:R:3 energy=16.881352201775734 pbc="F F F"
Ba       0.00000000       0.00000000       0.00000000       0.00000000       0.00000000     -33.24499512
Ba       0.00000000       0.00000000       1.76727273       0.00000000       0.00000000      33.24499512
2
Properties=species:S:1:pos:R:3:forces:R:3 energy=14.907573016971863 pbc="F F F"
Ba       0.00000000       0.00000000       0.00000000       0.00000000       0.00000000     -33.50514603
Ba       0.00000000       0.00000000       1.82606061       0.00000000       0.00000000      33.50514603
2
Properties=species:S:1:pos:R:3:forces:R:3 energy=12.984618802139057 pbc="F F F"
Ba       0.00000000       0.00000000       0.00000000       0.00000000       0.00000000     -31.61320686
Ba       0.00000000       0.00000000       1.88484848       0.00000000       0.00000000      31.61320686
2
Properties=species:S:1:pos:R:3:forces:R:3 energy=11.21577832816725 pbc="F F F"
Ba       0.00000000       0.00000000       0.00000000       0.00000000       0.00000000     -28.44473267
Ba       0.00000000       0.00000000       1.94363636       0.00000000       0.00000000      28.44473267
2
Properties=species:S:1:pos:R:3:forces:R:3 energy=9.64415399250927 pbc="F F F"
Ba       0.00000000       0.00000000       0.00000000       0.00000000       0.00000000     -25.05796242
Ba       0.00000000       0.00000000       2.00242424       0.00000000       0.00000000      25.05796242
2
Properties=species:S:1:pos:R:3:forces:R:3 energy=8.260827178677909 pbc="F F F"
Ba       0.00000000       0.00000000       0.00000000       0.00000000       0.00000000     -22.09878731
Ba       0.00000000       0.00000000       2.06121212       0.00000000       0.00000000      22.09878731
2
Properties=species:S:1:pos:R:3:forces:R:3 energy=7.0347187654381935 pbc="F F F"
Ba       0.00000000       0.00000000       0.00000000       0.00000000       0.00000000     -19.70078278
Ba       0.00000000       0.00000000       2.12000000       0.00000000       0.00000000      19.70078278
2
Properties=species:S:1:pos:R:3:forces:R:3 energy=5.936027103644563 pbc="F F F"
Ba       0.00000000       0.00000000       0.00000000       0.00000000       0.00000000     -17.73313904
Ba       0.00000000       0.00000000       2.17878788       0.00000000       0.00000000      17.73313904
2
Properties=species:S:1:pos:R:3:forces:R:3 energy=4.9449326278787 pbc="F F F"
Ba       0.00000000       0.00000000       0.00000000       0.00000000       0.00000000     -16.01192665
Ba       0.00000000       0.00000000       2.23757576       0.00000000       0.00000000      16.01192665
2
Properties=species:S:1:pos:R:3:forces:R:3 energy=4.05149593367492 pbc="F F F"
Ba       0.00000000       0.00000000       0.00000000       0.00000000       0.00000000     -14.39108944
Ba       0.00000000       0.00000000       2.29636364       0.00000000       0.00000000      14.39108944
2
Properties=species:S:1:pos:R:3:forces:R:3 energy=3.2525596461260857 pbc="F F F"
Ba       0.00000000       0.00000000       0.00000000       0.00000000       0.00000000     -12.78956318
Ba       0.00000000       0.00000000       2.35515152       0.00000000       0.00000000      12.78956318
2
Properties=species:S:1:pos:R:3:forces:R:3 energy=2.547674574293786 pbc="F F F"
Ba       0.00000000       0.00000000       0.00000000       0.00000000       0.00000000     -11.19409370
Ba       0.00000000       0.00000000       2.41393939       0.00000000       0.00000000      11.19409370
2
Properties=species:S:1:pos:R:3:forces:R:3 energy=1.935514976165849 pbc="F F F"
Ba       0.00000000       0.00000000       0.00000000       0.00000000       0.00000000      -9.64453411
Ba       0.00000000       0.00000000       2.47272727       0.00000000       0.00000000       9.64453411
2
Properties=species:S:1:pos:R:3:forces:R:3 energy=1.4116345111367345 pbc="F F F"
Ba       0.00000000       0.00000000       0.00000000       0.00000000       0.00000000      -8.20023727
Ba       0.00000000       0.00000000       2.53151515       0.00000000       0.00000000       8.20023727
2
Properties=species:S:1:pos:R:3:forces:R:3 energy=0.9684156152412919 pbc="F F F"
Ba       0.00000000       0.00000000       0.00000000       0.00000000       0.00000000      -6.90531492
Ba       0.00000000       0.00000000       2.59030303       0.00000000       0.00000000       6.90531492
2
Properties=species:S:1:pos:R:3:forces:R:3 energy=0.5965133133846438 pbc="F F F"
Ba       0.00000000       0.00000000       0.00000000       0.00000000       0.00000000      -5.77407551
Ba       0.00000000       0.00000000       2.64909091       0.00000000       0.00000000       5.77407551
2
Properties=species:S:1:pos:R:3:forces:R:3 energy=0.2864948013998794 pbc="F F F"
Ba       0.00000000       0.00000000       0.00000000       0.00000000       0.00000000      -4.79716825
Ba       0.00000000       0.00000000       2.70787879       0.00000000       0.00000000       4.79716825
2
Properties=species:S:1:pos:R:3:forces:R:3 energy=0.029846513879016878 pbc="F F F"
Ba       0.00000000       0.00000000       0.00000000       0.00000000       0.00000000      -3.95477557
Ba       0.00000000       0.00000000       2.76666667       0.00000000       0.00000000       3.95477557
2
Properties=species:S:1:pos:R:3:forces:R:3 energy=-0.18073790812529 pbc="F F F"
Ba       0.00000000       0.00000000       0.00000000       0.00000000       0.00000000      -3.22722340
Ba       0.00000000       0.00000000       2.82545455       0.00000000       0.00000000       3.22722340
2
Properties=species:S:1:pos:R:3:forces:R:3 energy=-0.3515779748352977 pbc="F F F"
Ba       0.00000000       0.00000000       0.00000000       0.00000000       0.00000000      -2.60104275
Ba       0.00000000       0.00000000       2.88424242       0.00000000       0.00000000       2.60104275
2
Properties=species:S:1:pos:R:3:forces:R:3 energy=-0.48844247932198126 pbc="F F F"
Ba       0.00000000       0.00000000       0.00000000       0.00000000       0.00000000      -2.07126904
Ba       0.00000000       0.00000000       2.94303030       0.00000000       0.00000000       2.07126904
2
Properties=species:S:1:pos:R:3:forces:R:3 energy=-0.5970375185694926 pbc="F F F"
Ba       0.00000000       0.00000000       0.00000000       0.00000000       0.00000000      -1.63998806
Ba       0.00000000       0.00000000       3.00181818       0.00000000       0.00000000       1.63998806
2
Properties=species:S:1:pos:R:3:forces:R:3 energy=-0.683275111858404 pbc="F F F"
Ba       0.00000000       0.00000000       0.00000000       0.00000000       0.00000000      -1.31107223
Ba       0.00000000       0.00000000       3.06060606       0.00000000       0.00000000       1.31107223
2
Properties=species:S:1:pos:R:3:forces:R:3 energy=-0.7531604147264893 pbc="F F F"
Ba       0.00000000       0.00000000       0.00000000       0.00000000       0.00000000      -1.08238757
Ba       0.00000000       0.00000000       3.11939394       0.00000000       0.00000000       1.08238757
2
Properties=species:S:1:pos:R:3:forces:R:3 energy=-0.8122209690291015 pbc="F F F"
Ba       0.00000000       0.00000000       0.00000000       0.00000000       0.00000000      -0.93911886
Ba       0.00000000       0.00000000       3.17818182       0.00000000       0.00000000       0.93911886
2
Properties=species:S:1:pos:R:3:forces:R:3 energy=-0.8647012538709856 pbc="F F F"
Ba       0.00000000       0.00000000       0.00000000       0.00000000       0.00000000      -0.85295784
Ba       0.00000000       0.00000000       3.23696970       0.00000000       0.00000000       0.85295784
2
Properties=species:S:1:pos:R:3:forces:R:3 energy=-0.9129416413815653 pbc="F F F"
Ba       0.00000000       0.00000000       0.00000000       0.00000000       0.00000000      -0.78910679
Ba       0.00000000       0.00000000       3.29575758       0.00000000       0.00000000       0.78910679
2
Properties=species:S:1:pos:R:3:forces:R:3 energy=-0.9573227834216471 pbc="F F F"
Ba       0.00000000       0.00000000       0.00000000       0.00000000       0.00000000      -0.71767414
Ba       0.00000000       0.00000000       3.35454545       0.00000000       0.00000000       0.71767414
2
Properties=species:S:1:pos:R:3:forces:R:3 energy=-0.9968538979240174 pbc="F F F"
Ba       0.00000000       0.00000000       0.00000000       0.00000000       0.00000000      -0.62289912
Ba       0.00000000       0.00000000       3.41333333       0.00000000       0.00000000       0.62289912
2
Properties=species:S:1:pos:R:3:forces:R:3 energy=-1.0301096872969537 pbc="F F F"
Ba       0.00000000       0.00000000       0.00000000       0.00000000       0.00000000      -0.50550646
Ba       0.00000000       0.00000000       3.47212121       0.00000000       0.00000000       0.50550646
2
Properties=species:S:1:pos:R:3:forces:R:3 energy=-1.0560927342789816 pbc="F F F"
Ba       0.00000000       0.00000000       0.00000000       0.00000000       0.00000000      -0.37821665
Ba       0.00000000       0.00000000       3.53090909       0.00000000       0.00000000       0.37821665
2
Properties=species:S:1:pos:R:3:forces:R:3 energy=-1.0747184735031323 pbc="F F F"
Ba       0.00000000       0.00000000       0.00000000       0.00000000       0.00000000      -0.25796098
Ba       0.00000000       0.00000000       3.58969697       0.00000000       0.00000000       0.25796098
2
Properties=species:S:1:pos:R:3:forces:R:3 energy=-1.0868453742059299 pbc="F F F"
Ba       0.00000000       0.00000000       0.00000000       0.00000000       0.00000000      -0.15904506
Ba       0.00000000       0.00000000       3.64848485       0.00000000       0.00000000       0.15904506
2
Properties=species:S:1:pos:R:3:forces:R:3 energy=-1.093999786180175 pbc="F F F"
Ba       0.00000000       0.00000000       0.00000000       0.00000000       0.00000000      -0.08957902
Ba       0.00000000       0.00000000       3.70727273       0.00000000       0.00000000       0.08957902
2
Properties=species:S:1:pos:R:3:forces:R:3 energy=-1.0979904235161246 pbc="F F F"
Ba       0.00000000       0.00000000       0.00000000       0.00000000       0.00000000      -0.05120309
Ba       0.00000000       0.00000000       3.76606061       0.00000000       0.00000000       0.05120309
2
Properties=species:S:1:pos:R:3:forces:R:3 energy=-1.1005643676854437 pbc="F F F"
Ba       0.00000000       0.00000000       0.00000000       0.00000000       0.00000000      -0.04047630
Ba       0.00000000       0.00000000       3.82484848       0.00000000       0.00000000       0.04047630
2
Properties=species:S:1:pos:R:3:forces:R:3 energy=-1.1031576404376857 pbc="F F F"
Ba       0.00000000       0.00000000       0.00000000       0.00000000       0.00000000      -0.05052429
Ba       0.00000000       0.00000000       3.88363636       0.00000000       0.00000000       0.05052429
2
Properties=species:S:1:pos:R:3:forces:R:3 energy=-1.106736876768613 pbc="F F F"
Ba       0.00000000       0.00000000       0.00000000       0.00000000       0.00000000      -0.07241661
Ba       0.00000000       0.00000000       3.94242424       0.00000000       0.00000000       0.07241661
2
Properties=species:S:1:pos:R:3:forces:R:3 energy=-1.1117132662202842 pbc="F F F"
Ba       0.00000000       0.00000000       0.00000000       0.00000000       0.00000000      -0.09642682
Ba       0.00000000       0.00000000       4.00121212       0.00000000       0.00000000       0.09642682
2
Properties=species:S:1:pos:R:3:forces:R:3 energy=-1.1179347582638877 pbc="F F F"
Ba       0.00000000       0.00000000       0.00000000       0.00000000       0.00000000      -0.11337247
Ba       0.00000000       0.00000000       4.06000000       0.00000000       0.00000000       0.11337247
2
Properties=species:S:1:pos:R:3:forces:R:3 energy=-1.1247600175767243 pbc="F F F"
Ba       0.00000000       0.00000000       0.00000000       0.00000000       0.00000000      -0.11598597
Ba       0.00000000       0.00000000       4.11878788       0.00000000       0.00000000       0.11598597
2
Properties=species:S:1:pos:R:3:forces:R:3 energy=-1.1312054758130077 pbc="F F F"
Ba       0.00000000       0.00000000       0.00000000       0.00000000       0.00000000      -0.10001029
Ba       0.00000000       0.00000000       4.17757576       0.00000000       0.00000000       0.10001029
2
Properties=species:S:1:pos:R:3:forces:R:3 energy=-1.1361382197706222 pbc="F F F"
Ba       0.00000000       0.00000000       0.00000000       0.00000000       0.00000000      -0.06471156
Ba       0.00000000       0.00000000       4.23636364       0.00000000       0.00000000       0.06471156
2
Properties=species:S:1:pos:R:3:forces:R:3 energy=-1.1384843532956348 pbc="F F F"
Ba       0.00000000       0.00000000       0.00000000       0.00000000       0.00000000      -0.01269759
Ba       0.00000000       0.00000000       4.29515152       0.00000000       0.00000000       0.01269759
2
Properties=species:S:1:pos:R:3:forces:R:3 energy=-1.1374033123351082 pbc="F F F"
Ba       0.00000000       0.00000000       0.00000000       0.00000000       0.00000000       0.05089843
Ba       0.00000000       0.00000000       4.35393939       0.00000000       0.00000000      -0.05089843
2
Properties=species:S:1:pos:R:3:forces:R:3 energy=-1.1323985293805232 pbc="F F F"
Ba       0.00000000       0.00000000       0.00000000       0.00000000       0.00000000       0.11968172
Ba       0.00000000       0.00000000       4.41272727       0.00000000       0.00000000      -0.11968172
2
Properties=species:S:1:pos:R:3:forces:R:3 energy=-1.123352688874547 pbc="F F F"
Ba       0.00000000       0.00000000       0.00000000       0.00000000       0.00000000       0.18745072
Ba       0.00000000       0.00000000       4.47151515       0.00000000       0.00000000      -0.18745072
2
Properties=species:S:1:pos:R:3:forces:R:3 energy=-1.110469492357067 pbc="F F F"
Ba       0.00000000       0.00000000       0.00000000       0.00000000       0.00000000       0.24967080
Ba       0.00000000       0.00000000       4.53030303       0.00000000       0.00000000      -0.24967080
2
Properties=species:S:1:pos:R:3:forces:R:3 energy=-1.0941438625876438 pbc="F F F"
Ba       0.00000000       0.00000000       0.00000000       0.00000000       0.00000000       0.30454519
Ba       0.00000000       0.00000000       4.58909091       0.00000000       0.00000000      -0.30454519
2
Properties=species:S:1:pos:R:3:forces:R:3 energy=-1.074787630684521 pbc="F F F"
Ba       0.00000000       0.00000000       0.00000000       0.00000000       0.00000000       0.35310376
Ba       0.00000000       0.00000000       4.64787879       0.00000000       0.00000000      -0.35310376
2
Properties=species:S:1:pos:R:3:forces:R:3 energy=-1.0527013335215973 pbc="F F F"
Ba       0.00000000       0.00000000       0.00000000       0.00000000       0.00000000       0.39783832
Ba       0.00000000       0.00000000       4.70666667       0.00000000       0.00000000      -0.39783832
2
Properties=species:S:1:pos:R:3:forces:R:3 energy=-1.0280488965859729 pbc="F F F"
Ba       0.00000000       0.00000000       0.00000000       0.00000000       0.00000000       0.44060314
Ba       0.00000000       0.00000000       4.76545455       0.00000000       0.00000000      -0.44060314
2
Properties=species:S:1:pos:R:3:forces:R:3 energy=-1.000933591815545 pbc="F F F"
Ba       0.00000000       0.00000000       0.00000000       0.00000000       0.00000000       0.48136613
Ba       0.00000000       0.00000000       4.82424242       0.00000000       0.00000000      -0.48136613
2
Properties=species:S:1:pos:R:3:forces:R:3 energy=-0.9715288851024887 pbc="F F F"
Ba       0.00000000       0.00000000       0.00000000       0.00000000       0.00000000       0.51825982
Ba       0.00000000       0.00000000       4.88303030       0.00000000       0.00000000      -0.51825982
2
Properties=species:S:1:pos:R:3:forces:R:3 energy=-0.9401331786215591 pbc="F F F"
Ba       0.00000000       0.00000000       0.00000000       0.00000000       0.00000000       0.54833442
Ba       0.00000000       0.00000000       4.94181818       0.00000000       0.00000000      -0.54833442
2
Properties=species:S:1:pos:R:3:forces:R:3 energy=-0.9072497314125579 pbc="F F F"
Ba       0.00000000       0.00000000       0.00000000       0.00000000       0.00000000       0.56862754
Ba       0.00000000       0.00000000       5.00060606       0.00000000       0.00000000      -0.56862754
2
Properties=species:S:1:pos:R:3:forces:R:3 energy=-0.8734722175027002 pbc="F F F"
Ba       0.00000000       0.00000000       0.00000000       0.00000000       0.00000000       0.57908732
Ba       0.00000000       0.00000000       5.05939394       0.00000000       0.00000000      -0.57908732
2
Properties=species:S:1:pos:R:3:forces:R:3 energy=-0.8392111556853061 pbc="F F F"
Ba       0.00000000       0.00000000       0.00000000       0.00000000       0.00000000       0.58745635
Ba       0.00000000       0.00000000       5.11818182       0.00000000       0.00000000      -0.58745635
2
Properties=species:S:1:pos:R:3:forces:R:3 energy=-0.8041049656618445 pbc="F F F"
Ba       0.00000000       0.00000000       0.00000000       0.00000000       0.00000000       0.61109698
Ba       0.00000000       0.00000000       5.17696970       0.00000000       0.00000000      -0.61109698
2
Properties=species:S:1:pos:R:3:forces:R:3 energy=-0.7667486777850582 pbc="F F F"
Ba       0.00000000       0.00000000       0.00000000       0.00000000       0.00000000       0.66513163
Ba       0.00000000       0.00000000       5.23575758       0.00000000       0.00000000      -0.66513163
2
Properties=species:S:1:pos:R:3:forces:R:3 energy=-0.7254982085453033 pbc="F F F"
Ba       0.00000000       0.00000000       0.00000000       0.00000000       0.00000000       0.73855525
Ba       0.00000000       0.00000000       5.29454545       0.00000000       0.00000000      -0.73855525
2
Properties=species:S:1:pos:R:3:forces:R:3 energy=-0.6803525581638983 pbc="F F F"
Ba       0.00000000       0.00000000       0.00000000       0.00000000       0.00000000       0.78968841
Ba       0.00000000       0.00000000       5.35333333       0.00000000       0.00000000      -0.78968841
2
Properties=species:S:1:pos:R:3:forces:R:3 energy=-0.6337694172258569 pbc="F F F"
Ba       0.00000000       0.00000000       0.00000000       0.00000000       0.00000000       0.78598028
Ba       0.00000000       0.00000000       5.41212121       0.00000000       0.00000000      -0.78598028
2
Properties=species:S:1:pos:R:3:forces:R:3 energy=-0.5885892803548237 pbc="F F F"
Ba       0.00000000       0.00000000       0.00000000       0.00000000       0.00000000       0.75125510
Ba       0.00000000       0.00000000       5.47090909       0.00000000       0.00000000      -0.75125510
2
Properties=species:S:1:pos:R:3:forces:R:3 energy=-0.5444949225259988 pbc="F F F"
Ba       0.00000000       0.00000000       0.00000000       0.00000000       0.00000000       0.76441962
Ba       0.00000000       0.00000000       5.52969697       0.00000000       0.00000000      -0.76441962
2
Properties=species:S:1:pos:R:3:forces:R:3 energy=-0.49627608600153894 pbc="F F F"
Ba       0.00000000       0.00000000       0.00000000       0.00000000       0.00000000       0.89854896
Ba       0.00000000       0.00000000       5.58848485       0.00000000       0.00000000      -0.89854896
2
Properties=species:S:1:pos:R:3:forces:R:3 energy=-0.4368724968951658 pbc="F F F"
Ba       0.00000000       0.00000000       0.00000000       0.00000000       0.00000000       1.13050771
Ba       0.00000000       0.00000000       5.64727273       0.00000000       0.00000000      -1.13050771
2
Properties=species:S:1:pos:R:3:forces:R:3 energy=-0.36437277299049725 pbc="F F F"
Ba       0.00000000       0.00000000       0.00000000       0.00000000       0.00000000       1.30963099
Ba       0.00000000       0.00000000       5.70606061       0.00000000       0.00000000      -1.30963099
2
Properties=species:S:1:pos:R:3:forces:R:3 energy=-0.2872675451039076 pbc="F F F"
Ba       0.00000000       0.00000000       0.00000000       0.00000000       0.00000000       1.26164055
Ba       0.00000000       0.00000000       5.76484848       0.00000000       0.00000000      -1.26164055
2
Properties=species:S:1:pos:R:3:forces:R:3 energy=-0.22120527013611524 pbc="F F F"
Ba       0.00000000       0.00000000       0.00000000       0.00000000       0.00000000       0.95109195
Ba       0.00000000       0.00000000       5.82363636       0.00000000       0.00000000      -0.95109195
2
Properties=species:S:1:pos:R:3:forces:R:3 energy=-0.1780173831940829 pbc="F F F"
Ba       0.00000000       0.00000000       0.00000000       0.00000000       0.00000000       0.52103746
Ba       0.00000000       0.00000000       5.88242424       0.00000000       0.00000000      -0.52103746
2
Properties=species:S:1:pos:R:3:forces:R:3 energy=-0.15836009237206491 pbc="F F F"
Ba       0.00000000       0.00000000       0.00000000       0.00000000       0.00000000       0.17201681
Ba       0.00000000       0.00000000       5.94121212       0.00000000       0.00000000      -0.17201681
2
Properties=species:S:1:pos:R:3:forces:R:3 energy=-0.15340800130339968 pbc="F F F"
Ba       0.00000000       0.00000000       0.00000000       0.00000000       0.00000000       0.04043269
Ba       0.00000000       0.00000000       6.00000000       0.00000000       0.00000000      -0.04043269
