2
Properties=species:S:1:pos:R:3:forces:R:3 energy=17269.470304994942 pbc="F F F"
Bi       0.00000000       0.00000000       0.00000000       0.00000000       0.00000000 -307238.75000000
Bi       0.00000000       0.00000000       0.18000000       0.00000000       0.00000000  307238.75000000
2
Properties=species:S:1:pos:R:3:forces:R:3 energy=6593.195890932441 pbc="F F F"
Bi       0.00000000       0.00000000       0.00000000       0.00000000       0.00000000 -100186.17187500
Bi       0.00000000       0.00000000       0.23878788       0.00000000       0.00000000  100186.17187500
2
Properties=species:S:1:pos:R:3:forces:R:3 energy=2843.571379216859 pbc="F F F"
Bi       0.00000000       0.00000000       0.00000000       0.00000000       0.00000000  -38404.07031250
Bi       0.00000000       0.00000000       0.29757576       0.00000000       0.00000000   38404.07031250
2
Properties=species:S:1:pos:R:3:forces:R:3 energy=1338.2150559746717 pbc="F F F"
Bi       0.00000000       0.00000000       0.00000000       0.00000000       0.00000000  -16287.65722656
Bi       0.00000000       0.00000000       0.35636364       0.00000000       0.00000000   16287.65722656
2
Properties=species:S:1:pos:R:3:forces:R:3 energy=678.140532055226 pbc="F F F"
Bi       0.00000000       0.00000000       0.00000000       0.00000000       0.00000000   -7435.14355469
Bi       0.00000000       0.00000000       0.41515152       0.00000000       0.00000000    7435.14355469
2
Properties=species:S:1:pos:R:3:forces:R:3 energy=368.60302595804603 pbc="F F F"
Bi       0.00000000       0.00000000       0.00000000       0.00000000       0.00000000   -3601.73779297
Bi       0.00000000       0.00000000       0.47393939       0.00000000       0.00000000    3601.73779297
2
Properties=species:S:1:pos:R:3:forces:R:3 energy=215.25771958056862 pbc="F F F"
Bi       0.00000000       0.00000000       0.00000000       0.00000000       0.00000000   -1831.81848145
Bi       0.00000000       0.00000000       0.53272727       0.00000000       0.00000000    1831.81848145
2
Properties=species:S:1:pos:R:3:forces:R:3 energy=135.89118823384086 pbc="F F F"
Bi       0.00000000       0.00000000       0.00000000       0.00000000       0.00000000    -966.64599609
Bi       0.00000000       0.00000000       0.59151515       0.00000000       0.00000000     966.64599609
2
Properties=species:S:1:pos:R:3:forces:R:3 energy=93.51862968444038 pbc="F F F"
Bi       0.00000000       0.00000000       0.00000000       0.00000000       0.00000000    -522.22930908
Bi       0.00000000       0.00000000       0.65030303       0.00000000       0.00000000     522.22930908
2
Properties=species:S:1:pos:R:3:forces:R:3 energy=70.51095459273749 pbc="F F F"
Bi       0.00000000       0.00000000       0.00000000       0.00000000       0.00000000    -284.20071411
Bi       0.00000000       0.00000000       0.70909091       0.00000000       0.00000000     284.20071411
2
Properties=species:S:1:pos:R:3:forces:R:3 energy=58.10395320824995 pbc="F F F"
Bi       0.00000000       0.00000000       0.00000000       0.00000000       0.00000000    -149.89852905
Bi       0.00000000       0.00000000       0.76787879       0.00000000       0.00000000     149.89852905
2
Properties=species:S:1:pos:R:3:forces:R:3 energy=51.8370847816681 pbc="F F F"
Bi       0.00000000       0.00000000       0.00000000       0.00000000       0.00000000     -70.04590607
Bi       0.00000000       0.00000000       0.82666667       0.00000000       0.00000000      70.04590607
2
Properties=species:S:1:pos:R:3:forces:R:3 energy=49.22931600680359 pbc="F F F"
Bi       0.00000000       0.00000000       0.00000000       0.00000000       0.00000000     -23.15488243
Bi       0.00000000       0.00000000       0.88545455       0.00000000       0.00000000      23.15488243
2
Properties=species:S:1:pos:R:3:forces:R:3 energy=48.66057931256344 pbc="F F F"
Bi       0.00000000       0.00000000       0.00000000       0.00000000       0.00000000       0.45766008
Bi       0.00000000       0.00000000       0.94424242       0.00000000       0.00000000      -0.45766008
2
Properties=species:S:1:pos:R:3:forces:R:3 energy=48.94504174699531 pbc="F F F"
Bi       0.00000000       0.00000000       0.00000000       0.00000000       0.00000000       6.82354689
Bi       0.00000000       0.00000000       1.00303030       0.00000000       0.00000000      -6.82354689
2
Properties=species:S:1:pos:R:3:forces:R:3 energy=49.23507761569119 pbc="F F F"
Bi       0.00000000       0.00000000       0.00000000       0.00000000       0.00000000       1.53586781
Bi       0.00000000       0.00000000       1.06181818       0.00000000       0.00000000      -1.53586781
2
Properties=species:S:1:pos:R:3:forces:R:3 energy=48.996038064569085 pbc="F F F"
Bi       0.00000000       0.00000000       0.00000000       0.00000000       0.00000000     -10.36578274
Bi       0.00000000       0.00000000       1.12060606       0.00000000       0.00000000      10.36578274
2
Properties=species:S:1:pos:R:3:forces:R:3 energy=47.98654817799956 pbc="F F F"
Bi       0.00000000       0.00000000       0.00000000       0.00000000       0.00000000     -23.72025681
Bi       0.00000000       0.00000000       1.17939394       0.00000000       0.00000000      23.72025681
2
Properties=species:S:1:pos:R:3:forces:R:3 energy=46.29725285259702 pbc="F F F"
Bi       0.00000000       0.00000000       0.00000000       0.00000000       0.00000000     -32.74454880
Bi       0.00000000       0.00000000       1.23818182       0.00000000       0.00000000      32.74454880
2
Properties=species:S:1:pos:R:3:forces:R:3 energy=44.18291290024104 pbc="F F F"
Bi       0.00000000       0.00000000       0.00000000       0.00000000       0.00000000     -39.78448868
Bi       0.00000000       0.00000000       1.29696970       0.00000000       0.00000000      39.78448868
2
Properties=species:S:1:pos:R:3:forces:R:3 energy=41.49403042379082 pbc="F F F"
Bi       0.00000000       0.00000000       0.00000000       0.00000000       0.00000000     -52.53177643
Bi       0.00000000       0.00000000       1.35575758       0.00000000       0.00000000      52.53177643
2
Properties=species:S:1:pos:R:3:forces:R:3 energy=37.991847427954966 pbc="F F F"
Bi       0.00000000       0.00000000       0.00000000       0.00000000       0.00000000     -66.10173035
Bi       0.00000000       0.00000000       1.41454545       0.00000000       0.00000000      66.10173035
2
Properties=species:S:1:pos:R:3:forces:R:3 energy=33.827231498436774 pbc="F F F"
Bi       0.00000000       0.00000000       0.00000000       0.00000000       0.00000000     -74.44853973
Bi       0.00000000       0.00000000       1.47333333       0.00000000       0.00000000      74.44853973
2
Properties=species:S:1:pos:R:3:forces:R:3 energy=29.37453806860775 pbc="F F F"
Bi       0.00000000       0.00000000       0.00000000       0.00000000       0.00000000     -76.02465820
Bi       0.00000000       0.00000000       1.53212121       0.00000000       0.00000000      76.02465820
2
Properties=species:S:1:pos:R:3:forces:R:3 energy=24.96496504500995 pbc="F F F"
Bi       0.00000000       0.00000000       0.00000000       0.00000000       0.00000000     -73.71437836
Bi       0.00000000       0.00000000       1.59090909       0.00000000       0.00000000      73.71437836
2
Properties=species:S:1:pos:R:3:forces:R:3 energy=20.72217172311342 pbc="F F F"
Bi       0.00000000       0.00000000       0.00000000       0.00000000       0.00000000     -70.49146271
Bi       0.00000000       0.00000000       1.64969697       0.00000000       0.00000000      70.49146271
2
Properties=species:S:1:pos:R:3:forces:R:3 energy=16.70180328200117 pbc="F F F"
Bi       0.00000000       0.00000000       0.00000000       0.00000000       0.00000000     -66.03799438
Bi       0.00000000       0.00000000       1.70848485       0.00000000       0.00000000      66.03799438
2
Properties=species:S:1:pos:R:3:forces:R:3 energy=12.984631399152239 pbc="F F F"
Bi       0.00000000       0.00000000       0.00000000       0.00000000       0.00000000     -60.22375488
Bi       0.00000000       0.00000000       1.76727273       0.00000000       0.00000000      60.22375488
2
Properties=species:S:1:pos:R:3:forces:R:3 energy=9.63982821767087 pbc="F F F"
Bi       0.00000000       0.00000000       0.00000000       0.00000000       0.00000000     -53.44951248
Bi       0.00000000       0.00000000       1.82606061       0.00000000       0.00000000      53.44951248
2
Properties=species:S:1:pos:R:3:forces:R:3 energy=6.708700521495379 pbc="F F F"
Bi       0.00000000       0.00000000       0.00000000       0.00000000       0.00000000     -46.24354935
Bi       0.00000000       0.00000000       1.88484848       0.00000000       0.00000000      46.24354935
2
Properties=species:S:1:pos:R:3:forces:R:3 energy=4.201024736489819 pbc="F F F"
Bi       0.00000000       0.00000000       0.00000000       0.00000000       0.00000000     -39.11774063
Bi       0.00000000       0.00000000       1.94363636       0.00000000       0.00000000      39.11774063
2
Properties=species:S:1:pos:R:3:forces:R:3 energy=2.1007244079072285 pbc="F F F"
Bi       0.00000000       0.00000000       0.00000000       0.00000000       0.00000000     -32.43021393
Bi       0.00000000       0.00000000       2.00242424       0.00000000       0.00000000      32.43021393
2
Properties=species:S:1:pos:R:3:forces:R:3 energy=0.3750657729026463 pbc="F F F"
Bi       0.00000000       0.00000000       0.00000000       0.00000000       0.00000000     -26.40041924
Bi       0.00000000       0.00000000       2.06121212       0.00000000       0.00000000      26.40041924
2
Properties=species:S:1:pos:R:3:forces:R:3 energy=-1.0186088377950122 pbc="F F F"
Bi       0.00000000       0.00000000       0.00000000       0.00000000       0.00000000     -21.14756775
Bi       0.00000000       0.00000000       2.12000000       0.00000000       0.00000000      21.14756775
2
Properties=species:S:1:pos:R:3:forces:R:3 energy=-2.127060471272239 pbc="F F F"
Bi       0.00000000       0.00000000       0.00000000       0.00000000       0.00000000     -16.69287682
Bi       0.00000000       0.00000000       2.17878788       0.00000000       0.00000000      16.69287682
2
Properties=species:S:1:pos:R:3:forces:R:3 energy=-2.9960134609415054 pbc="F F F"
Bi       0.00000000       0.00000000       0.00000000       0.00000000       0.00000000     -12.98871708
Bi       0.00000000       0.00000000       2.23757576       0.00000000       0.00000000      12.98871708
2
Properties=species:S:1:pos:R:3:forces:R:3 energy=-3.6674002994550294 pbc="F F F"
Bi       0.00000000       0.00000000       0.00000000       0.00000000       0.00000000      -9.95671654
Bi       0.00000000       0.00000000       2.29636364       0.00000000       0.00000000       9.95671654
2
Properties=species:S:1:pos:R:3:forces:R:3 energy=-4.177910111549163 pbc="F F F"
Bi       0.00000000       0.00000000       0.00000000       0.00000000       0.00000000      -7.49715376
Bi       0.00000000       0.00000000       2.35515152       0.00000000       0.00000000       7.49715376
2
Properties=species:S:1:pos:R:3:forces:R:3 energy=-4.557831176192363 pbc="F F F"
Bi       0.00000000       0.00000000       0.00000000       0.00000000       0.00000000      -5.49424505
Bi       0.00000000       0.00000000       2.41393939       0.00000000       0.00000000       5.49424505
2
Properties=species:S:1:pos:R:3:forces:R:3 energy=-4.8306770514071165 pbc="F F F"
Bi       0.00000000       0.00000000       0.00000000       0.00000000       0.00000000      -3.83820271
Bi       0.00000000       0.00000000       2.47272727       0.00000000       0.00000000       3.83820271
2
Properties=species:S:1:pos:R:3:forces:R:3 energy=-5.014332623869284 pbc="F F F"
Bi       0.00000000       0.00000000       0.00000000       0.00000000       0.00000000      -2.45014715
Bi       0.00000000       0.00000000       2.53151515       0.00000000       0.00000000       2.45014715
2
Properties=species:S:1:pos:R:3:forces:R:3 energy=-5.123227605535096 pbc="F F F"
Bi       0.00000000       0.00000000       0.00000000       0.00000000       0.00000000      -1.29129195
Bi       0.00000000       0.00000000       2.59030303       0.00000000       0.00000000       1.29129195
2
Properties=species:S:1:pos:R:3:forces:R:3 energy=-5.170440291665816 pbc="F F F"
Bi       0.00000000       0.00000000       0.00000000       0.00000000       0.00000000      -0.35111547
Bi       0.00000000       0.00000000       2.64909091       0.00000000       0.00000000       0.35111547
2
Properties=species:S:1:pos:R:3:forces:R:3 energy=-5.1686970716999525 pbc="F F F"
Bi       0.00000000       0.00000000       0.00000000       0.00000000       0.00000000       0.37590182
Bi       0.00000000       0.00000000       2.70787879       0.00000000       0.00000000      -0.37590182
2
Properties=species:S:1:pos:R:3:forces:R:3 energy=-5.130051460824991 pbc="F F F"
Bi       0.00000000       0.00000000       0.00000000       0.00000000       0.00000000       0.90913492
Bi       0.00000000       0.00000000       2.76666667       0.00000000       0.00000000      -0.90913492
2
Properties=species:S:1:pos:R:3:forces:R:3 energy=-5.06489708507378 pbc="F F F"
Bi       0.00000000       0.00000000       0.00000000       0.00000000       0.00000000       1.28472960
Bi       0.00000000       0.00000000       2.82545455       0.00000000       0.00000000      -1.28472960
2
Properties=species:S:1:pos:R:3:forces:R:3 energy=-4.981263904525064 pbc="F F F"
Bi       0.00000000       0.00000000       0.00000000       0.00000000       0.00000000       1.54442346
Bi       0.00000000       0.00000000       2.88424242       0.00000000       0.00000000      -1.54442346
2
Properties=species:S:1:pos:R:3:forces:R:3 energy=-4.884903560819161 pbc="F F F"
Bi       0.00000000       0.00000000       0.00000000       0.00000000       0.00000000       1.72236598
Bi       0.00000000       0.00000000       2.94303030       0.00000000       0.00000000      -1.72236598
2
Properties=species:S:1:pos:R:3:forces:R:3 energy=-4.7799259610998055 pbc="F F F"
Bi       0.00000000       0.00000000       0.00000000       0.00000000       0.00000000       1.84026217
Bi       0.00000000       0.00000000       3.00181818       0.00000000       0.00000000      -1.84026217
2
Properties=species:S:1:pos:R:3:forces:R:3 energy=-4.669463057513124 pbc="F F F"
Bi       0.00000000       0.00000000       0.00000000       0.00000000       0.00000000       1.91062331
Bi       0.00000000       0.00000000       3.06060606       0.00000000       0.00000000      -1.91062331
2
Properties=species:S:1:pos:R:3:forces:R:3 energy=-4.5560519216758895 pbc="F F F"
Bi       0.00000000       0.00000000       0.00000000       0.00000000       0.00000000       1.94175673
Bi       0.00000000       0.00000000       3.11939394       0.00000000       0.00000000      -1.94175673
2
Properties=species:S:1:pos:R:3:forces:R:3 energy=-4.441797899011355 pbc="F F F"
Bi       0.00000000       0.00000000       0.00000000       0.00000000       0.00000000       1.94019496
Bi       0.00000000       0.00000000       3.17818182       0.00000000       0.00000000      -1.94019496
2
Properties=species:S:1:pos:R:3:forces:R:3 energy=-4.328474345247046 pbc="F F F"
Bi       0.00000000       0.00000000       0.00000000       0.00000000       0.00000000       1.91090798
Bi       0.00000000       0.00000000       3.23696970       0.00000000       0.00000000      -1.91090798
2
Properties=species:S:1:pos:R:3:forces:R:3 energy=-4.217594880587571 pbc="F F F"
Bi       0.00000000       0.00000000       0.00000000       0.00000000       0.00000000       1.85750461
Bi       0.00000000       0.00000000       3.29575758       0.00000000       0.00000000      -1.85750461
2
Properties=species:S:1:pos:R:3:forces:R:3 energy=-4.110484409780955 pbc="F F F"
Bi       0.00000000       0.00000000       0.00000000       0.00000000       0.00000000       1.78332543
Bi       0.00000000       0.00000000       3.35454545       0.00000000       0.00000000      -1.78332543
2
Properties=species:S:1:pos:R:3:forces:R:3 energy=-4.008243254633791 pbc="F F F"
Bi       0.00000000       0.00000000       0.00000000       0.00000000       0.00000000       1.69263577
Bi       0.00000000       0.00000000       3.41333333       0.00000000       0.00000000      -1.69263577
2
Properties=species:S:1:pos:R:3:forces:R:3 energy=-3.9116874996730746 pbc="F F F"
Bi       0.00000000       0.00000000       0.00000000       0.00000000       0.00000000       1.59091759
Bi       0.00000000       0.00000000       3.47212121       0.00000000       0.00000000      -1.59091759
2
Properties=species:S:1:pos:R:3:forces:R:3 energy=-3.821288561499103 pbc="F F F"
Bi       0.00000000       0.00000000       0.00000000       0.00000000       0.00000000       1.48421216
Bi       0.00000000       0.00000000       3.53090909       0.00000000       0.00000000      -1.48421216
2
Properties=species:S:1:pos:R:3:forces:R:3 energy=-3.7371674423234236 pbc="F F F"
Bi       0.00000000       0.00000000       0.00000000       0.00000000       0.00000000       1.37811673
Bi       0.00000000       0.00000000       3.58969697       0.00000000       0.00000000      -1.37811673
2
Properties=species:S:1:pos:R:3:forces:R:3 energy=-3.6591557185668577 pbc="F F F"
Bi       0.00000000       0.00000000       0.00000000       0.00000000       0.00000000       1.27701700
Bi       0.00000000       0.00000000       3.64848485       0.00000000       0.00000000      -1.27701700
2
Properties=species:S:1:pos:R:3:forces:R:3 energy=-3.5868680396920305 pbc="F F F"
Bi       0.00000000       0.00000000       0.00000000       0.00000000       0.00000000       1.18371069
Bi       0.00000000       0.00000000       3.70727273       0.00000000       0.00000000      -1.18371069
2
Properties=species:S:1:pos:R:3:forces:R:3 energy=-3.519797744199953 pbc="F F F"
Bi       0.00000000       0.00000000       0.00000000       0.00000000       0.00000000       1.09965193
Bi       0.00000000       0.00000000       3.76606061       0.00000000       0.00000000      -1.09965193
2
Properties=species:S:1:pos:R:3:forces:R:3 energy=-3.457382746578333 pbc="F F F"
Bi       0.00000000       0.00000000       0.00000000       0.00000000       0.00000000       1.02541339
Bi       0.00000000       0.00000000       3.82484848       0.00000000       0.00000000      -1.02541339
2
Properties=species:S:1:pos:R:3:forces:R:3 energy=-3.3990432940872233 pbc="F F F"
Bi       0.00000000       0.00000000       0.00000000       0.00000000       0.00000000       0.96087533
Bi       0.00000000       0.00000000       3.88363636       0.00000000       0.00000000      -0.96087533
2
Properties=species:S:1:pos:R:3:forces:R:3 energy=-3.3442321264621344 pbc="F F F"
Bi       0.00000000       0.00000000       0.00000000       0.00000000       0.00000000       0.90522635
Bi       0.00000000       0.00000000       3.94242424       0.00000000       0.00000000      -0.90522635
2
Properties=species:S:1:pos:R:3:forces:R:3 energy=-3.2924658774417224 pbc="F F F"
Bi       0.00000000       0.00000000       0.00000000       0.00000000       0.00000000       0.85699552
Bi       0.00000000       0.00000000       4.00121212       0.00000000       0.00000000      -0.85699552
2
Properties=species:S:1:pos:R:3:forces:R:3 energy=-3.2433629074539843 pbc="F F F"
Bi       0.00000000       0.00000000       0.00000000       0.00000000       0.00000000       0.81424367
Bi       0.00000000       0.00000000       4.06000000       0.00000000       0.00000000      -0.81424367
2
Properties=species:S:1:pos:R:3:forces:R:3 energy=-3.196664648750765 pbc="F F F"
Bi       0.00000000       0.00000000       0.00000000       0.00000000       0.00000000       0.77487522
Bi       0.00000000       0.00000000       4.11878788       0.00000000       0.00000000      -0.77487522
2
Properties=species:S:1:pos:R:3:forces:R:3 energy=-3.1522284503546305 pbc="F F F"
Bi       0.00000000       0.00000000       0.00000000       0.00000000       0.00000000       0.73693806
Bi       0.00000000       0.00000000       4.17757576       0.00000000       0.00000000      -0.73693806
2
Properties=species:S:1:pos:R:3:forces:R:3 energy=-3.1100202709502778 pbc="F F F"
Bi       0.00000000       0.00000000       0.00000000       0.00000000       0.00000000       0.69888163
Bi       0.00000000       0.00000000       4.23636364       0.00000000       0.00000000      -0.69888163
2
Properties=species:S:1:pos:R:3:forces:R:3 energy=-3.0700788035600595 pbc="F F F"
Bi       0.00000000       0.00000000       0.00000000       0.00000000       0.00000000       0.65969086
Bi       0.00000000       0.00000000       4.29515152       0.00000000       0.00000000      -0.65969086
2
Properties=species:S:1:pos:R:3:forces:R:3 energy=-3.032488069246756 pbc="F F F"
Bi       0.00000000       0.00000000       0.00000000       0.00000000       0.00000000       0.61894912
Bi       0.00000000       0.00000000       4.35393939       0.00000000       0.00000000      -0.61894912
2
Properties=species:S:1:pos:R:3:forces:R:3 energy=-2.997335054634229 pbc="F F F"
Bi       0.00000000       0.00000000       0.00000000       0.00000000       0.00000000       0.57675529
Bi       0.00000000       0.00000000       4.41272727       0.00000000       0.00000000      -0.57675529
2
Properties=species:S:1:pos:R:3:forces:R:3 energy=-2.9646932000049215 pbc="F F F"
Bi       0.00000000       0.00000000       0.00000000       0.00000000       0.00000000       0.53363419
Bi       0.00000000       0.00000000       4.47151515       0.00000000       0.00000000      -0.53363419
2
Properties=species:S:1:pos:R:3:forces:R:3 energy=-2.934595121379357 pbc="F F F"
Bi       0.00000000       0.00000000       0.00000000       0.00000000       0.00000000       0.49035770
Bi       0.00000000       0.00000000       4.53030303       0.00000000       0.00000000      -0.49035770
2
Properties=species:S:1:pos:R:3:forces:R:3 energy=-2.9070252797288068 pbc="F F F"
Bi       0.00000000       0.00000000       0.00000000       0.00000000       0.00000000       0.44779211
Bi       0.00000000       0.00000000       4.58909091       0.00000000       0.00000000      -0.44779211
2
Properties=species:S:1:pos:R:3:forces:R:3 energy=-2.8819156736017546 pbc="F F F"
Bi       0.00000000       0.00000000       0.00000000       0.00000000       0.00000000       0.40678692
Bi       0.00000000       0.00000000       4.64787879       0.00000000       0.00000000      -0.40678692
2
Properties=species:S:1:pos:R:3:forces:R:3 energy=-2.859151695050245 pbc="F F F"
Bi       0.00000000       0.00000000       0.00000000       0.00000000       0.00000000       0.36807200
Bi       0.00000000       0.00000000       4.70666667       0.00000000       0.00000000      -0.36807200
2
Properties=species:S:1:pos:R:3:forces:R:3 energy=-2.8385830778775873 pbc="F F F"
Bi       0.00000000       0.00000000       0.00000000       0.00000000       0.00000000       0.33221933
Bi       0.00000000       0.00000000       4.76545455       0.00000000       0.00000000      -0.33221933
2
Properties=species:S:1:pos:R:3:forces:R:3 energy=-2.8200264568862843 pbc="F F F"
Bi       0.00000000       0.00000000       0.00000000       0.00000000       0.00000000       0.29960153
Bi       0.00000000       0.00000000       4.82424242       0.00000000       0.00000000      -0.29960153
2
Properties=species:S:1:pos:R:3:forces:R:3 energy=-2.8032908438199513 pbc="F F F"
Bi       0.00000000       0.00000000       0.00000000       0.00000000       0.00000000       0.27038285
Bi       0.00000000       0.00000000       4.88303030       0.00000000       0.00000000      -0.27038285
2
Properties=species:S:1:pos:R:3:forces:R:3 energy=-2.7881717564297777 pbc="F F F"
Bi       0.00000000       0.00000000       0.00000000       0.00000000       0.00000000       0.24447598
Bi       0.00000000       0.00000000       4.94181818       0.00000000       0.00000000      -0.24447598
2
Properties=species:S:1:pos:R:3:forces:R:3 energy=-2.77448673967499 pbc="F F F"
Bi       0.00000000       0.00000000       0.00000000       0.00000000       0.00000000       0.22156645
Bi       0.00000000       0.00000000       5.00060606       0.00000000       0.00000000      -0.22156645
2
Properties=species:S:1:pos:R:3:forces:R:3 energy=-2.7620715367703883 pbc="F F F"
Bi       0.00000000       0.00000000       0.00000000       0.00000000       0.00000000       0.20114559
Bi       0.00000000       0.00000000       5.05939394       0.00000000       0.00000000      -0.20114559
2
Properties=species:S:1:pos:R:3:forces:R:3 energy=-2.7507980775337355 pbc="F F F"
Bi       0.00000000       0.00000000       0.00000000       0.00000000       0.00000000       0.18271255
Bi       0.00000000       0.00000000       5.11818182       0.00000000       0.00000000      -0.18271255
2
Properties=species:S:1:pos:R:3:forces:R:3 energy=-2.7405539664684038 pbc="F F F"
Bi       0.00000000       0.00000000       0.00000000       0.00000000       0.00000000       0.16611716
Bi       0.00000000       0.00000000       5.17696970       0.00000000       0.00000000      -0.16611716
2
Properties=species:S:1:pos:R:3:forces:R:3 energy=-2.7312210266751618 pbc="F F F"
Bi       0.00000000       0.00000000       0.00000000       0.00000000       0.00000000       0.15187883
Bi       0.00000000       0.00000000       5.23575758       0.00000000       0.00000000      -0.15187883
2
Properties=species:S:1:pos:R:3:forces:R:3 energy=-2.7226347005855547 pbc="F F F"
Bi       0.00000000       0.00000000       0.00000000       0.00000000       0.00000000       0.14079095
Bi       0.00000000       0.00000000       5.29454545       0.00000000       0.00000000      -0.14079095
2
Properties=species:S:1:pos:R:3:forces:R:3 energy=-2.7146074324056775 pbc="F F F"
Bi       0.00000000       0.00000000       0.00000000       0.00000000       0.00000000       0.13268918
Bi       0.00000000       0.00000000       5.35333333       0.00000000       0.00000000      -0.13268918
2
Properties=species:S:1:pos:R:3:forces:R:3 energy=-2.707005694740244 pbc="F F F"
Bi       0.00000000       0.00000000       0.00000000       0.00000000       0.00000000       0.12601545
Bi       0.00000000       0.00000000       5.41212121       0.00000000       0.00000000      -0.12601545
2
Properties=species:S:1:pos:R:3:forces:R:3 energy=-2.699796184776137 pbc="F F F"
Bi       0.00000000       0.00000000       0.00000000       0.00000000       0.00000000       0.11911322
Bi       0.00000000       0.00000000       5.47090909       0.00000000       0.00000000      -0.11911322
2
Properties=species:S:1:pos:R:3:forces:R:3 energy=-2.693013931629695 pbc="F F F"
Bi       0.00000000       0.00000000       0.00000000       0.00000000       0.00000000       0.11152969
Bi       0.00000000       0.00000000       5.52969697       0.00000000       0.00000000      -0.11152969
2
Properties=species:S:1:pos:R:3:forces:R:3 energy=-2.686686990921759 pbc="F F F"
Bi       0.00000000       0.00000000       0.00000000       0.00000000       0.00000000       0.10369836
Bi       0.00000000       0.00000000       5.58848485       0.00000000       0.00000000      -0.10369836
2
Properties=species:S:1:pos:R:3:forces:R:3 energy=-2.6808407188890766 pbc="F F F"
Bi       0.00000000       0.00000000       0.00000000       0.00000000       0.00000000       0.09496748
Bi       0.00000000       0.00000000       5.64727273       0.00000000       0.00000000      -0.09496748
2
Properties=species:S:1:pos:R:3:forces:R:3 energy=-2.6755912673133504 pbc="F F F"
Bi       0.00000000       0.00000000       0.00000000       0.00000000       0.00000000       0.08277557
Bi       0.00000000       0.00000000       5.70606061       0.00000000       0.00000000      -0.08277557
2
Properties=species:S:1:pos:R:3:forces:R:3 energy=-2.671196892616991 pbc="F F F"
Bi       0.00000000       0.00000000       0.00000000       0.00000000       0.00000000       0.06574271
Bi       0.00000000       0.00000000       5.76484848       0.00000000       0.00000000      -0.06574271
2
Properties=species:S:1:pos:R:3:forces:R:3 energy=-2.667910622684697 pbc="F F F"
Bi       0.00000000       0.00000000       0.00000000       0.00000000       0.00000000       0.04601371
Bi       0.00000000       0.00000000       5.82363636       0.00000000       0.00000000      -0.04601371
2
Properties=species:S:1:pos:R:3:forces:R:3 energy=-2.665763074168961 pbc="F F F"
Bi       0.00000000       0.00000000       0.00000000       0.00000000       0.00000000       0.02786812
Bi       0.00000000       0.00000000       5.88242424       0.00000000       0.00000000      -0.02786812
2
Properties=species:S:1:pos:R:3:forces:R:3 energy=-2.6645300885438865 pbc="F F F"
Bi       0.00000000       0.00000000       0.00000000       0.00000000       0.00000000       0.01511458
Bi       0.00000000       0.00000000       5.94121212       0.00000000       0.00000000      -0.01511458
2
Properties=species:S:1:pos:R:3:forces:R:3 energy=-2.6638295229207043 pbc="F F F"
Bi       0.00000000       0.00000000       0.00000000       0.00000000       0.00000000       0.01019728
Bi       0.00000000       0.00000000       6.00000000       0.00000000       0.00000000      -0.01019728
