2
Properties=species:S:1:pos:R:3:forces:R:3 energy=5254.753036367115 pbc="F F F"
Br       0.00000000       0.00000000       0.00000000       0.00000000       0.00000000  -83679.39843750
Br       0.00000000       0.00000000       0.18000000       0.00000000       0.00000000   83679.39843750
2
Properties=species:S:1:pos:R:3:forces:R:3 energy=2240.731551992115 pbc="F F F"
Br       0.00000000       0.00000000       0.00000000       0.00000000       0.00000000  -29753.51953125
Br       0.00000000       0.00000000       0.23878788       0.00000000       0.00000000   29753.51953125
2
Properties=species:S:1:pos:R:3:forces:R:3 energy=1084.9078215233649 pbc="F F F"
Br       0.00000000       0.00000000       0.00000000       0.00000000       0.00000000  -12460.15039062
Br       0.00000000       0.00000000       0.29757576       0.00000000       0.00000000   12460.15039062
2
Properties=species:S:1:pos:R:3:forces:R:3 energy=577.1619719203255 pbc="F F F"
Br       0.00000000       0.00000000       0.00000000       0.00000000       0.00000000   -5776.47167969
Br       0.00000000       0.00000000       0.35636364       0.00000000       0.00000000    5776.47167969
2
Properties=species:S:1:pos:R:3:forces:R:3 energy=334.4890593353406 pbc="F F F"
Br       0.00000000       0.00000000       0.00000000       0.00000000       0.00000000   -2853.18261719
Br       0.00000000       0.00000000       0.41515152       0.00000000       0.00000000    2853.18261719
2
Properties=species:S:1:pos:R:3:forces:R:3 energy=212.56227102743725 pbc="F F F"
Br       0.00000000       0.00000000       0.00000000       0.00000000       0.00000000   -1456.69274902
Br       0.00000000       0.00000000       0.47393939       0.00000000       0.00000000    1456.69274902
2
Properties=species:S:1:pos:R:3:forces:R:3 energy=149.92704768311486 pbc="F F F"
Br       0.00000000       0.00000000       0.00000000       0.00000000       0.00000000    -753.22027588
Br       0.00000000       0.00000000       0.53272727       0.00000000       0.00000000     753.22027588
2
Properties=species:S:1:pos:R:3:forces:R:3 energy=117.26383212510339 pbc="F F F"
Br       0.00000000       0.00000000       0.00000000       0.00000000       0.00000000    -397.36163330
Br       0.00000000       0.00000000       0.59151515       0.00000000       0.00000000     397.36163330
2
Properties=species:S:1:pos:R:3:forces:R:3 energy=100.10953537681628 pbc="F F F"
Br       0.00000000       0.00000000       0.00000000       0.00000000       0.00000000    -203.67387390
Br       0.00000000       0.00000000       0.65030303       0.00000000       0.00000000     203.67387390
2
Properties=species:S:1:pos:R:3:forces:R:3 energy=91.73629034029908 pbc="F F F"
Br       0.00000000       0.00000000       0.00000000       0.00000000       0.00000000     -92.23930359
Br       0.00000000       0.00000000       0.70909091       0.00000000       0.00000000      92.23930359
2
Properties=species:S:1:pos:R:3:forces:R:3 energy=88.13259954333579 pbc="F F F"
Br       0.00000000       0.00000000       0.00000000       0.00000000       0.00000000     -38.79572678
Br       0.00000000       0.00000000       0.76787879       0.00000000       0.00000000      38.79572678
2
Properties=species:S:1:pos:R:3:forces:R:3 energy=86.33161275584983 pbc="F F F"
Br       0.00000000       0.00000000       0.00000000       0.00000000       0.00000000     -28.25641823
Br       0.00000000       0.00000000       0.82666667       0.00000000       0.00000000      28.25641823
2
Properties=species:S:1:pos:R:3:forces:R:3 energy=84.26642786154619 pbc="F F F"
Br       0.00000000       0.00000000       0.00000000       0.00000000       0.00000000     -45.74010086
Br       0.00000000       0.00000000       0.88545455       0.00000000       0.00000000      45.74010086
2
Properties=species:S:1:pos:R:3:forces:R:3 energy=80.61879236030475 pbc="F F F"
Br       0.00000000       0.00000000       0.00000000       0.00000000       0.00000000     -80.06935883
Br       0.00000000       0.00000000       0.94424242       0.00000000       0.00000000      80.06935883
2
Properties=species:S:1:pos:R:3:forces:R:3 energy=74.8265038777078 pbc="F F F"
Br       0.00000000       0.00000000       0.00000000       0.00000000       0.00000000    -115.65868378
Br       0.00000000       0.00000000       1.00303030       0.00000000       0.00000000     115.65868378
2
Properties=species:S:1:pos:R:3:forces:R:3 energy=67.29807844530137 pbc="F F F"
Br       0.00000000       0.00000000       0.00000000       0.00000000       0.00000000    -137.76766968
Br       0.00000000       0.00000000       1.06181818       0.00000000       0.00000000     137.76766968
2
Properties=species:S:1:pos:R:3:forces:R:3 energy=58.88828683752752 pbc="F F F"
Br       0.00000000       0.00000000       0.00000000       0.00000000       0.00000000    -146.63414001
Br       0.00000000       0.00000000       1.12060606       0.00000000       0.00000000     146.63414001
2
Properties=species:S:1:pos:R:3:forces:R:3 energy=50.2409356512899 pbc="F F F"
Br       0.00000000       0.00000000       0.00000000       0.00000000       0.00000000    -146.02359009
Br       0.00000000       0.00000000       1.17939394       0.00000000       0.00000000     146.02359009
2
Properties=species:S:1:pos:R:3:forces:R:3 energy=41.87806637528391 pbc="F F F"
Br       0.00000000       0.00000000       0.00000000       0.00000000       0.00000000    -137.48884583
Br       0.00000000       0.00000000       1.23818182       0.00000000       0.00000000     137.48884583
2
Properties=species:S:1:pos:R:3:forces:R:3 energy=34.138939304065026 pbc="F F F"
Br       0.00000000       0.00000000       0.00000000       0.00000000       0.00000000    -125.64400482
Br       0.00000000       0.00000000       1.29696970       0.00000000       0.00000000     125.64400482
2
Properties=species:S:1:pos:R:3:forces:R:3 energy=27.113201961975097 pbc="F F F"
Br       0.00000000       0.00000000       0.00000000       0.00000000       0.00000000    -113.19365692
Br       0.00000000       0.00000000       1.35575758       0.00000000       0.00000000     113.19365692
2
Properties=species:S:1:pos:R:3:forces:R:3 energy=20.878354001591802 pbc="F F F"
Br       0.00000000       0.00000000       0.00000000       0.00000000       0.00000000     -98.36339569
Br       0.00000000       0.00000000       1.41454545       0.00000000       0.00000000      98.36339569
2
Properties=species:S:1:pos:R:3:forces:R:3 energy=15.603774007665717 pbc="F F F"
Br       0.00000000       0.00000000       0.00000000       0.00000000       0.00000000     -80.82029724
Br       0.00000000       0.00000000       1.47333333       0.00000000       0.00000000      80.82029724
2
Properties=species:S:1:pos:R:3:forces:R:3 energy=11.370590464918747 pbc="F F F"
Br       0.00000000       0.00000000       0.00000000       0.00000000       0.00000000     -63.54490662
Br       0.00000000       0.00000000       1.53212121       0.00000000       0.00000000      63.54490662
2
Properties=species:S:1:pos:R:3:forces:R:3 energy=8.0652612030625 pbc="F F F"
Br       0.00000000       0.00000000       0.00000000       0.00000000       0.00000000     -49.59571075
Br       0.00000000       0.00000000       1.59090909       0.00000000       0.00000000      49.59571075
2
Properties=species:S:1:pos:R:3:forces:R:3 energy=5.4626074955306025 pbc="F F F"
Br       0.00000000       0.00000000       0.00000000       0.00000000       0.00000000     -39.49151230
Br       0.00000000       0.00000000       1.64969697       0.00000000       0.00000000      39.49151230
2
Properties=species:S:1:pos:R:3:forces:R:3 energy=3.374091539430432 pbc="F F F"
Br       0.00000000       0.00000000       0.00000000       0.00000000       0.00000000     -31.85068321
Br       0.00000000       0.00000000       1.70848485       0.00000000       0.00000000      31.85068321
2
Properties=species:S:1:pos:R:3:forces:R:3 energy=1.6929329244531774 pbc="F F F"
Br       0.00000000       0.00000000       0.00000000       0.00000000       0.00000000     -25.49900627
Br       0.00000000       0.00000000       1.76727273       0.00000000       0.00000000      25.49900627
2
Properties=species:S:1:pos:R:3:forces:R:3 energy=0.36111258649710043 pbc="F F F"
Br       0.00000000       0.00000000       0.00000000       0.00000000       0.00000000     -19.92332458
Br       0.00000000       0.00000000       1.82606061       0.00000000       0.00000000      19.92332458
2
Properties=species:S:1:pos:R:3:forces:R:3 energy=-0.6630947795928501 pbc="F F F"
Br       0.00000000       0.00000000       0.00000000       0.00000000       0.00000000     -15.04351330
Br       0.00000000       0.00000000       1.88484848       0.00000000       0.00000000      15.04351330
2
Properties=species:S:1:pos:R:3:forces:R:3 energy=-1.4231452279615584 pbc="F F F"
Br       0.00000000       0.00000000       0.00000000       0.00000000       0.00000000     -10.95222664
Br       0.00000000       0.00000000       1.94363636       0.00000000       0.00000000      10.95222664
2
Properties=species:S:1:pos:R:3:forces:R:3 energy=-1.9671250291048654 pbc="F F F"
Br       0.00000000       0.00000000       0.00000000       0.00000000       0.00000000      -7.68935061
Br       0.00000000       0.00000000       2.00242424       0.00000000       0.00000000       7.68935061
2
Properties=species:S:1:pos:R:3:forces:R:3 energy=-2.3420666364793625 pbc="F F F"
Br       0.00000000       0.00000000       0.00000000       0.00000000       0.00000000      -5.18159294
Br       0.00000000       0.00000000       2.06121212       0.00000000       0.00000000       5.18159294
2
Properties=species:S:1:pos:R:3:forces:R:3 energy=-2.5882931588035474 pbc="F F F"
Br       0.00000000       0.00000000       0.00000000       0.00000000       0.00000000      -3.28213167
Br       0.00000000       0.00000000       2.12000000       0.00000000       0.00000000       3.28213167
2
Properties=species:S:1:pos:R:3:forces:R:3 energy=-2.7364924282344214 pbc="F F F"
Br       0.00000000       0.00000000       0.00000000       0.00000000       0.00000000      -1.81898499
Br       0.00000000       0.00000000       2.17878788       0.00000000       0.00000000       1.81898499
2
Properties=species:S:1:pos:R:3:forces:R:3 energy=-2.807932232155798 pbc="F F F"
Br       0.00000000       0.00000000       0.00000000       0.00000000       0.00000000      -0.65251392
Br       0.00000000       0.00000000       2.23757576       0.00000000       0.00000000       0.65251392
2
Properties=species:S:1:pos:R:3:forces:R:3 energy=-2.8174295971693644 pbc="F F F"
Br       0.00000000       0.00000000       0.00000000       0.00000000       0.00000000       0.29766554
Br       0.00000000       0.00000000       2.29636364       0.00000000       0.00000000      -0.29766554
2
Properties=species:S:1:pos:R:3:forces:R:3 energy=-2.776227309251544 pbc="F F F"
Br       0.00000000       0.00000000       0.00000000       0.00000000       0.00000000       1.08000231
Br       0.00000000       0.00000000       2.35515152       0.00000000       0.00000000      -1.08000231
2
Properties=species:S:1:pos:R:3:forces:R:3 energy=-2.6927530353415334 pbc="F F F"
Br       0.00000000       0.00000000       0.00000000       0.00000000       0.00000000       1.74473548
Br       0.00000000       0.00000000       2.41393939       0.00000000       0.00000000      -1.74473548
2
Properties=species:S:1:pos:R:3:forces:R:3 energy=-2.572471233725457 pbc="F F F"
Br       0.00000000       0.00000000       0.00000000       0.00000000       0.00000000       2.33728933
Br       0.00000000       0.00000000       2.47272727       0.00000000       0.00000000      -2.33728933
2
Properties=species:S:1:pos:R:3:forces:R:3 energy=-2.4193368142879064 pbc="F F F"
Br       0.00000000       0.00000000       0.00000000       0.00000000       0.00000000       2.85590816
Br       0.00000000       0.00000000       2.53151515       0.00000000       0.00000000      -2.85590816
2
Properties=species:S:1:pos:R:3:forces:R:3 energy=-2.239660542907182 pbc="F F F"
Br       0.00000000       0.00000000       0.00000000       0.00000000       0.00000000       3.22103167
Br       0.00000000       0.00000000       2.59030303       0.00000000       0.00000000      -3.22103167
2
Properties=species:S:1:pos:R:3:forces:R:3 energy=-2.046012850248702 pbc="F F F"
Br       0.00000000       0.00000000       0.00000000       0.00000000       0.00000000       3.31324434
Br       0.00000000       0.00000000       2.64909091       0.00000000       0.00000000      -3.31324434
2
Properties=species:S:1:pos:R:3:forces:R:3 energy=-1.856641712629243 pbc="F F F"
Br       0.00000000       0.00000000       0.00000000       0.00000000       0.00000000       3.07679415
Br       0.00000000       0.00000000       2.70787879       0.00000000       0.00000000      -3.07679415
2
Properties=species:S:1:pos:R:3:forces:R:3 energy=-1.6892676889504963 pbc="F F F"
Br       0.00000000       0.00000000       0.00000000       0.00000000       0.00000000       2.58778954
Br       0.00000000       0.00000000       2.76666667       0.00000000       0.00000000      -2.58778954
2
Properties=species:S:1:pos:R:3:forces:R:3 energy=-1.5541434553230324 pbc="F F F"
Br       0.00000000       0.00000000       0.00000000       0.00000000       0.00000000       2.00802207
Br       0.00000000       0.00000000       2.82545455       0.00000000       0.00000000      -2.00802207
2
Properties=species:S:1:pos:R:3:forces:R:3 energy=-1.452059870139503 pbc="F F F"
Br       0.00000000       0.00000000       0.00000000       0.00000000       0.00000000       1.48218012
Br       0.00000000       0.00000000       2.88424242       0.00000000       0.00000000      -1.48218012
2
Properties=species:S:1:pos:R:3:forces:R:3 energy=-1.3774167560324528 pbc="F F F"
Br       0.00000000       0.00000000       0.00000000       0.00000000       0.00000000       1.07944024
Br       0.00000000       0.00000000       2.94303030       0.00000000       0.00000000      -1.07944024
2
Properties=species:S:1:pos:R:3:forces:R:3 energy=-1.3226793229530185 pbc="F F F"
Br       0.00000000       0.00000000       0.00000000       0.00000000       0.00000000       0.80142015
Br       0.00000000       0.00000000       3.00181818       0.00000000       0.00000000      -0.80142015
2
Properties=species:S:1:pos:R:3:forces:R:3 energy=-1.2813403016371592 pbc="F F F"
Br       0.00000000       0.00000000       0.00000000       0.00000000       0.00000000       0.61767232
Br       0.00000000       0.00000000       3.06060606       0.00000000       0.00000000      -0.61767232
2
Properties=species:S:1:pos:R:3:forces:R:3 energy=-1.2488792702432043 pbc="F F F"
Br       0.00000000       0.00000000       0.00000000       0.00000000       0.00000000       0.49433711
Br       0.00000000       0.00000000       3.11939394       0.00000000       0.00000000      -0.49433711
2
Properties=species:S:1:pos:R:3:forces:R:3 energy=-1.222527183253331 pbc="F F F"
Br       0.00000000       0.00000000       0.00000000       0.00000000       0.00000000       0.40663466
Br       0.00000000       0.00000000       3.17818182       0.00000000       0.00000000      -0.40663466
2
Properties=species:S:1:pos:R:3:forces:R:3 energy=-1.2006598222567404 pbc="F F F"
Br       0.00000000       0.00000000       0.00000000       0.00000000       0.00000000       0.34007889
Br       0.00000000       0.00000000       3.23696970       0.00000000       0.00000000      -0.34007889
2
Properties=species:S:1:pos:R:3:forces:R:3 energy=-1.1822711538517492 pbc="F F F"
Br       0.00000000       0.00000000       0.00000000       0.00000000       0.00000000       0.28748676
Br       0.00000000       0.00000000       3.29575758       0.00000000       0.00000000      -0.28748676
2
Properties=species:S:1:pos:R:3:forces:R:3 energy=-1.1666451509999503 pbc="F F F"
Br       0.00000000       0.00000000       0.00000000       0.00000000       0.00000000       0.24581270
Br       0.00000000       0.00000000       3.35454545       0.00000000       0.00000000      -0.24581270
2
Properties=species:S:1:pos:R:3:forces:R:3 energy=-1.1531764830879454 pbc="F F F"
Br       0.00000000       0.00000000       0.00000000       0.00000000       0.00000000       0.21402898
Br       0.00000000       0.00000000       3.41333333       0.00000000       0.00000000      -0.21402898
2
Properties=species:S:1:pos:R:3:forces:R:3 energy=-1.1412913586231788 pbc="F F F"
Br       0.00000000       0.00000000       0.00000000       0.00000000       0.00000000       0.19189374
Br       0.00000000       0.00000000       3.47212121       0.00000000       0.00000000      -0.19189374
2
Properties=species:S:1:pos:R:3:forces:R:3 energy=-1.1304302823165175 pbc="F F F"
Br       0.00000000       0.00000000       0.00000000       0.00000000       0.00000000       0.17914039
Br       0.00000000       0.00000000       3.53090909       0.00000000       0.00000000      -0.17914039
2
Properties=species:S:1:pos:R:3:forces:R:3 energy=-1.120061374092467 pbc="F F F"
Br       0.00000000       0.00000000       0.00000000       0.00000000       0.00000000       0.17491147
Br       0.00000000       0.00000000       3.58969697       0.00000000       0.00000000      -0.17491147
2
Properties=species:S:1:pos:R:3:forces:R:3 energy=-1.1097297669164723 pbc="F F F"
Br       0.00000000       0.00000000       0.00000000       0.00000000       0.00000000       0.17754015
Br       0.00000000       0.00000000       3.64848485       0.00000000       0.00000000      -0.17754015
2
Properties=species:S:1:pos:R:3:forces:R:3 energy=-1.09909745637572 pbc="F F F"
Br       0.00000000       0.00000000       0.00000000       0.00000000       0.00000000       0.18473694
Br       0.00000000       0.00000000       3.70727273       0.00000000       0.00000000      -0.18473694
2
Properties=species:S:1:pos:R:3:forces:R:3 energy=-1.0879673702842099 pbc="F F F"
Br       0.00000000       0.00000000       0.00000000       0.00000000       0.00000000       0.19407925
Br       0.00000000       0.00000000       3.76606061       0.00000000       0.00000000      -0.19407925
2
Properties=species:S:1:pos:R:3:forces:R:3 energy=-1.0762768268429863 pbc="F F F"
Br       0.00000000       0.00000000       0.00000000       0.00000000       0.00000000       0.20352726
Br       0.00000000       0.00000000       3.82484848       0.00000000       0.00000000      -0.20352726
2
Properties=species:S:1:pos:R:3:forces:R:3 energy=-1.0640621726627018 pbc="F F F"
Br       0.00000000       0.00000000       0.00000000       0.00000000       0.00000000       0.21175866
Br       0.00000000       0.00000000       3.88363636       0.00000000       0.00000000      -0.21175866
2
Properties=species:S:1:pos:R:3:forces:R:3 energy=-1.0514143117789272 pbc="F F F"
Br       0.00000000       0.00000000       0.00000000       0.00000000       0.00000000       0.21820703
Br       0.00000000       0.00000000       3.94242424       0.00000000       0.00000000      -0.21820703
2
Properties=species:S:1:pos:R:3:forces:R:3 energy=-1.038441166229282 pbc="F F F"
Br       0.00000000       0.00000000       0.00000000       0.00000000       0.00000000       0.22287112
Br       0.00000000       0.00000000       4.00121212       0.00000000       0.00000000      -0.22287112
2
Properties=species:S:1:pos:R:3:forces:R:3 energy=-1.0252401422913269 pbc="F F F"
Br       0.00000000       0.00000000       0.00000000       0.00000000       0.00000000       0.22600599
Br       0.00000000       0.00000000       4.06000000       0.00000000       0.00000000      -0.22600599
2
Properties=species:S:1:pos:R:3:forces:R:3 energy=-1.011893922727412 pbc="F F F"
Br       0.00000000       0.00000000       0.00000000       0.00000000       0.00000000       0.22784111
Br       0.00000000       0.00000000       4.11878788       0.00000000       0.00000000      -0.22784111
2
Properties=species:S:1:pos:R:3:forces:R:3 energy=-0.9984761423131762 pbc="F F F"
Br       0.00000000       0.00000000       0.00000000       0.00000000       0.00000000       0.22841047
Br       0.00000000       0.00000000       4.17757576       0.00000000       0.00000000      -0.22841047
2
Properties=species:S:1:pos:R:3:forces:R:3 energy=-0.9850663854493009 pbc="F F F"
Br       0.00000000       0.00000000       0.00000000       0.00000000       0.00000000       0.22752221
Br       0.00000000       0.00000000       4.23636364       0.00000000       0.00000000      -0.22752221
2
Properties=species:S:1:pos:R:3:forces:R:3 energy=-0.9717594385526732 pbc="F F F"
Br       0.00000000       0.00000000       0.00000000       0.00000000       0.00000000       0.22486743
Br       0.00000000       0.00000000       4.29515152       0.00000000       0.00000000      -0.22486743
2
Properties=species:S:1:pos:R:3:forces:R:3 energy=-0.9586672342509326 pbc="F F F"
Br       0.00000000       0.00000000       0.00000000       0.00000000       0.00000000       0.22021273
Br       0.00000000       0.00000000       4.35393939       0.00000000       0.00000000      -0.22021273
2
Properties=species:S:1:pos:R:3:forces:R:3 energy=-0.9459063702530466 pbc="F F F"
Br       0.00000000       0.00000000       0.00000000       0.00000000       0.00000000       0.21362056
Br       0.00000000       0.00000000       4.41272727       0.00000000       0.00000000      -0.21362056
2
Properties=species:S:1:pos:R:3:forces:R:3 energy=-0.933577570297485 pbc="F F F"
Br       0.00000000       0.00000000       0.00000000       0.00000000       0.00000000       0.20565350
Br       0.00000000       0.00000000       4.47151515       0.00000000       0.00000000      -0.20565350
2
Properties=species:S:1:pos:R:3:forces:R:3 energy=-0.9217305764324714 pbc="F F F"
Br       0.00000000       0.00000000       0.00000000       0.00000000       0.00000000       0.19748923
Br       0.00000000       0.00000000       4.53030303       0.00000000       0.00000000      -0.19748923
2
Properties=species:S:1:pos:R:3:forces:R:3 energy=-0.9103270135303968 pbc="F F F"
Br       0.00000000       0.00000000       0.00000000       0.00000000       0.00000000       0.19091360
Br       0.00000000       0.00000000       4.58909091       0.00000000       0.00000000      -0.19091360
2
Properties=species:S:1:pos:R:3:forces:R:3 energy=-0.8992093677380698 pbc="F F F"
Br       0.00000000       0.00000000       0.00000000       0.00000000       0.00000000       0.18814917
Br       0.00000000       0.00000000       4.64787879       0.00000000       0.00000000      -0.18814917
2
Properties=species:S:1:pos:R:3:forces:R:3 energy=-0.8880852977838509 pbc="F F F"
Br       0.00000000       0.00000000       0.00000000       0.00000000       0.00000000       0.19148119
Br       0.00000000       0.00000000       4.70666667       0.00000000       0.00000000      -0.19148119
2
Properties=species:S:1:pos:R:3:forces:R:3 energy=-0.8765411394734811 pbc="F F F"
Br       0.00000000       0.00000000       0.00000000       0.00000000       0.00000000       0.20267254
Br       0.00000000       0.00000000       4.76545455       0.00000000       0.00000000      -0.20267254
2
Properties=species:S:1:pos:R:3:forces:R:3 energy=-0.8640902537685053 pbc="F F F"
Br       0.00000000       0.00000000       0.00000000       0.00000000       0.00000000       0.22222294
Br       0.00000000       0.00000000       4.82424242       0.00000000       0.00000000      -0.22222294
2
Properties=species:S:1:pos:R:3:forces:R:3 energy=-0.8502788860113253 pbc="F F F"
Br       0.00000000       0.00000000       0.00000000       0.00000000       0.00000000       0.24857403
Br       0.00000000       0.00000000       4.88303030       0.00000000       0.00000000      -0.24857403
2
Properties=species:S:1:pos:R:3:forces:R:3 energy=-0.8348090952533478 pbc="F F F"
Br       0.00000000       0.00000000       0.00000000       0.00000000       0.00000000       0.27766287
Br       0.00000000       0.00000000       4.94181818       0.00000000       0.00000000      -0.27766287
2
Properties=species:S:1:pos:R:3:forces:R:3 energy=-0.8176987822228051 pbc="F F F"
Br       0.00000000       0.00000000       0.00000000       0.00000000       0.00000000       0.30332822
Br       0.00000000       0.00000000       5.00060606       0.00000000       0.00000000      -0.30332822
2
Properties=species:S:1:pos:R:3:forces:R:3 energy=-0.7993285940124364 pbc="F F F"
Br       0.00000000       0.00000000       0.00000000       0.00000000       0.00000000       0.31975043
Br       0.00000000       0.00000000       5.05939394       0.00000000       0.00000000      -0.31975043
2
Properties=species:S:1:pos:R:3:forces:R:3 energy=-0.7802979208416211 pbc="F F F"
Br       0.00000000       0.00000000       0.00000000       0.00000000       0.00000000       0.32669491
Br       0.00000000       0.00000000       5.11818182       0.00000000       0.00000000      -0.32669491
2
Properties=species:S:1:pos:R:3:forces:R:3 energy=-0.7608858791663626 pbc="F F F"
Br       0.00000000       0.00000000       0.00000000       0.00000000       0.00000000       0.33571813
Br       0.00000000       0.00000000       5.17696970       0.00000000       0.00000000      -0.33571813
2
Properties=species:S:1:pos:R:3:forces:R:3 energy=-0.7403691078014554 pbc="F F F"
Br       0.00000000       0.00000000       0.00000000       0.00000000       0.00000000       0.36767715
Br       0.00000000       0.00000000       5.23575758       0.00000000       0.00000000      -0.36767715
2
Properties=species:S:1:pos:R:3:forces:R:3 energy=-0.717027734720606 pbc="F F F"
Br       0.00000000       0.00000000       0.00000000       0.00000000       0.00000000       0.43022978
Br       0.00000000       0.00000000       5.29454545       0.00000000       0.00000000      -0.43022978
2
Properties=species:S:1:pos:R:3:forces:R:3 energy=-0.6897425795477902 pbc="F F F"
Br       0.00000000       0.00000000       0.00000000       0.00000000       0.00000000       0.49425197
Br       0.00000000       0.00000000       5.35333333       0.00000000       0.00000000      -0.49425197
2
Properties=species:S:1:pos:R:3:forces:R:3 energy=-0.6597409195417673 pbc="F F F"
Br       0.00000000       0.00000000       0.00000000       0.00000000       0.00000000       0.51783758
Br       0.00000000       0.00000000       5.41212121       0.00000000       0.00000000      -0.51783758
2
Properties=species:S:1:pos:R:3:forces:R:3 energy=-0.6297392635144765 pbc="F F F"
Br       0.00000000       0.00000000       0.00000000       0.00000000       0.00000000       0.49800903
Br       0.00000000       0.00000000       5.47090909       0.00000000       0.00000000      -0.49800903
2
Properties=species:S:1:pos:R:3:forces:R:3 energy=-0.6012555045295339 pbc="F F F"
Br       0.00000000       0.00000000       0.00000000       0.00000000       0.00000000       0.47443563
Br       0.00000000       0.00000000       5.52969697       0.00000000       0.00000000      -0.47443563
2
Properties=species:S:1:pos:R:3:forces:R:3 energy=-0.5732392588302728 pbc="F F F"
Br       0.00000000       0.00000000       0.00000000       0.00000000       0.00000000       0.48559195
Br       0.00000000       0.00000000       5.58848485       0.00000000       0.00000000      -0.48559195
2
Properties=species:S:1:pos:R:3:forces:R:3 energy=-0.5437022459434844 pbc="F F F"
Br       0.00000000       0.00000000       0.00000000       0.00000000       0.00000000       0.51905620
Br       0.00000000       0.00000000       5.64727273       0.00000000       0.00000000      -0.51905620
2
Properties=species:S:1:pos:R:3:forces:R:3 energy=-0.5130464300619189 pbc="F F F"
Br       0.00000000       0.00000000       0.00000000       0.00000000       0.00000000       0.51112038
Br       0.00000000       0.00000000       5.70606061       0.00000000       0.00000000      -0.51112038
2
Properties=species:S:1:pos:R:3:forces:R:3 energy=-0.4852155654422684 pbc="F F F"
Br       0.00000000       0.00000000       0.00000000       0.00000000       0.00000000       0.42064101
Br       0.00000000       0.00000000       5.76484848       0.00000000       0.00000000      -0.42064101
2
Properties=species:S:1:pos:R:3:forces:R:3 energy=-0.46462092991970827 pbc="F F F"
Br       0.00000000       0.00000000       0.00000000       0.00000000       0.00000000       0.27640653
Br       0.00000000       0.00000000       5.82363636       0.00000000       0.00000000      -0.27640653
2
Properties=species:S:1:pos:R:3:forces:R:3 energy=-0.45269549098646483 pbc="F F F"
Br       0.00000000       0.00000000       0.00000000       0.00000000       0.00000000       0.13555560
Br       0.00000000       0.00000000       5.88242424       0.00000000       0.00000000      -0.13555560
2
Properties=species:S:1:pos:R:3:forces:R:3 energy=-0.44784170202243645 pbc="F F F"
Br       0.00000000       0.00000000       0.00000000       0.00000000       0.00000000       0.03791179
Br       0.00000000       0.00000000       5.94121212       0.00000000       0.00000000      -0.03791179
2
Properties=species:S:1:pos:R:3:forces:R:3 energy=-0.44699283467971823 pbc="F F F"
Br       0.00000000       0.00000000       0.00000000       0.00000000       0.00000000       0.00273432
Br       0.00000000       0.00000000       6.00000000       0.00000000       0.00000000      -0.00273432
