2
Properties=species:S:1:pos:R:3:forces:R:3 energy=8178.892241634899 pbc="F F F"
Cd       0.00000000       0.00000000       0.00000000       0.00000000       0.00000000 -135766.17187500
Cd       0.00000000       0.00000000       0.18000000       0.00000000       0.00000000  135766.17187500
2
Properties=species:S:1:pos:R:3:forces:R:3 energy=3349.2804252286487 pbc="F F F"
Cd       0.00000000       0.00000000       0.00000000       0.00000000       0.00000000  -46872.60546875
Cd       0.00000000       0.00000000       0.23878788       0.00000000       0.00000000   46872.60546875
2
Properties=species:S:1:pos:R:3:forces:R:3 energy=1550.6367484740038 pbc="F F F"
Cd       0.00000000       0.00000000       0.00000000       0.00000000       0.00000000  -19069.99414062
Cd       0.00000000       0.00000000       0.29757576       0.00000000       0.00000000   19069.99414062
2
Properties=species:S:1:pos:R:3:forces:R:3 energy=783.3536063873279 pbc="F F F"
Cd       0.00000000       0.00000000       0.00000000       0.00000000       0.00000000   -8589.11230469
Cd       0.00000000       0.00000000       0.35636364       0.00000000       0.00000000    8589.11230469
2
Properties=species:S:1:pos:R:3:forces:R:3 energy=426.5050040987417 pbc="F F F"
Cd       0.00000000       0.00000000       0.00000000       0.00000000       0.00000000   -4144.86230469
Cd       0.00000000       0.00000000       0.41515152       0.00000000       0.00000000    4144.86230469
2
Properties=species:S:1:pos:R:3:forces:R:3 energy=250.17785568024863 pbc="F F F"
Cd       0.00000000       0.00000000       0.00000000       0.00000000       0.00000000   -2104.59643555
Cd       0.00000000       0.00000000       0.47393939       0.00000000       0.00000000    2104.59643555
2
Properties=species:S:1:pos:R:3:forces:R:3 energy=159.02445910548153 pbc="F F F"
Cd       0.00000000       0.00000000       0.00000000       0.00000000       0.00000000   -1110.04956055
Cd       0.00000000       0.00000000       0.53272727       0.00000000       0.00000000    1110.04956055
2
Properties=species:S:1:pos:R:3:forces:R:3 energy=110.34343651212373 pbc="F F F"
Cd       0.00000000       0.00000000       0.00000000       0.00000000       0.00000000    -600.55029297
Cd       0.00000000       0.00000000       0.59151515       0.00000000       0.00000000     600.55029297
2
Properties=species:S:1:pos:R:3:forces:R:3 energy=83.8327325602954 pbc="F F F"
Cd       0.00000000       0.00000000       0.00000000       0.00000000       0.00000000    -328.86428833
Cd       0.00000000       0.00000000       0.65030303       0.00000000       0.00000000     328.86428833
2
Properties=species:S:1:pos:R:3:forces:R:3 energy=69.3230204804413 pbc="F F F"
Cd       0.00000000       0.00000000       0.00000000       0.00000000       0.00000000    -179.05233765
Cd       0.00000000       0.00000000       0.70909091       0.00000000       0.00000000     179.05233765
2
Properties=species:S:1:pos:R:3:forces:R:3 energy=61.54639791730076 pbc="F F F"
Cd       0.00000000       0.00000000       0.00000000       0.00000000       0.00000000     -93.21396637
Cd       0.00000000       0.00000000       0.76787879       0.00000000       0.00000000      93.21396637
2
Properties=species:S:1:pos:R:3:forces:R:3 energy=57.657619541223895 pbc="F F F"
Cd       0.00000000       0.00000000       0.00000000       0.00000000       0.00000000     -43.87461090
Cd       0.00000000       0.00000000       0.82666667       0.00000000       0.00000000      43.87461090
2
Properties=species:S:1:pos:R:3:forces:R:3 energy=55.914295698598195 pbc="F F F"
Cd       0.00000000       0.00000000       0.00000000       0.00000000       0.00000000     -18.85941124
Cd       0.00000000       0.00000000       0.88545455       0.00000000       0.00000000      18.85941124
2
Properties=species:S:1:pos:R:3:forces:R:3 energy=55.09915655215134 pbc="F F F"
Cd       0.00000000       0.00000000       0.00000000       0.00000000       0.00000000     -11.21741772
Cd       0.00000000       0.00000000       0.94424242       0.00000000       0.00000000      11.21741772
2
Properties=species:S:1:pos:R:3:forces:R:3 energy=54.39165694969965 pbc="F F F"
Cd       0.00000000       0.00000000       0.00000000       0.00000000       0.00000000     -13.99568558
Cd       0.00000000       0.00000000       1.00303030       0.00000000       0.00000000      13.99568558
2
Properties=species:S:1:pos:R:3:forces:R:3 energy=53.36700371119136 pbc="F F F"
Cd       0.00000000       0.00000000       0.00000000       0.00000000       0.00000000     -21.37495422
Cd       0.00000000       0.00000000       1.06181818       0.00000000       0.00000000      21.37495422
2
Properties=species:S:1:pos:R:3:forces:R:3 energy=51.82106103055009 pbc="F F F"
Cd       0.00000000       0.00000000       0.00000000       0.00000000       0.00000000     -31.71503448
Cd       0.00000000       0.00000000       1.12060606       0.00000000       0.00000000      31.71503448
2
Properties=species:S:1:pos:R:3:forces:R:3 energy=49.583201399312905 pbc="F F F"
Cd       0.00000000       0.00000000       0.00000000       0.00000000       0.00000000     -44.89057922
Cd       0.00000000       0.00000000       1.17939394       0.00000000       0.00000000      44.89057922
2
Properties=species:S:1:pos:R:3:forces:R:3 energy=46.478246410025015 pbc="F F F"
Cd       0.00000000       0.00000000       0.00000000       0.00000000       0.00000000     -61.25677872
Cd       0.00000000       0.00000000       1.23818182       0.00000000       0.00000000      61.25677872
2
Properties=species:S:1:pos:R:3:forces:R:3 energy=42.374783689631435 pbc="F F F"
Cd       0.00000000       0.00000000       0.00000000       0.00000000       0.00000000     -77.71220398
Cd       0.00000000       0.00000000       1.29696970       0.00000000       0.00000000      77.71220398
2
Properties=species:S:1:pos:R:3:forces:R:3 energy=37.48557050711897 pbc="F F F"
Cd       0.00000000       0.00000000       0.00000000       0.00000000       0.00000000     -87.05867004
Cd       0.00000000       0.00000000       1.35575758       0.00000000       0.00000000      87.05867004
2
Properties=species:S:1:pos:R:3:forces:R:3 energy=32.31914051766888 pbc="F F F"
Cd       0.00000000       0.00000000       0.00000000       0.00000000       0.00000000     -87.34787750
Cd       0.00000000       0.00000000       1.41454545       0.00000000       0.00000000      87.34787750
2
Properties=species:S:1:pos:R:3:forces:R:3 energy=27.34413139995589 pbc="F F F"
Cd       0.00000000       0.00000000       0.00000000       0.00000000       0.00000000     -81.08451843
Cd       0.00000000       0.00000000       1.47333333       0.00000000       0.00000000      81.08451843
2
Properties=species:S:1:pos:R:3:forces:R:3 energy=22.851906166689137 pbc="F F F"
Cd       0.00000000       0.00000000       0.00000000       0.00000000       0.00000000     -71.41254425
Cd       0.00000000       0.00000000       1.53212121       0.00000000       0.00000000      71.41254425
2
Properties=species:S:1:pos:R:3:forces:R:3 energy=18.964949287951175 pbc="F F F"
Cd       0.00000000       0.00000000       0.00000000       0.00000000       0.00000000     -60.82843018
Cd       0.00000000       0.00000000       1.59090909       0.00000000       0.00000000      60.82843018
2
Properties=species:S:1:pos:R:3:forces:R:3 energy=15.687596487134423 pbc="F F F"
Cd       0.00000000       0.00000000       0.00000000       0.00000000       0.00000000     -50.84722900
Cd       0.00000000       0.00000000       1.64969697       0.00000000       0.00000000      50.84722900
2
Properties=species:S:1:pos:R:3:forces:R:3 energy=12.960230116483498 pbc="F F F"
Cd       0.00000000       0.00000000       0.00000000       0.00000000       0.00000000     -42.19645691
Cd       0.00000000       0.00000000       1.70848485       0.00000000       0.00000000      42.19645691
2
Properties=species:S:1:pos:R:3:forces:R:3 energy=10.69439248541533 pbc="F F F"
Cd       0.00000000       0.00000000       0.00000000       0.00000000       0.00000000     -35.16270447
Cd       0.00000000       0.00000000       1.76727273       0.00000000       0.00000000      35.16270447
2
Properties=species:S:1:pos:R:3:forces:R:3 energy=8.795645440219063 pbc="F F F"
Cd       0.00000000       0.00000000       0.00000000       0.00000000       0.00000000     -29.66400528
Cd       0.00000000       0.00000000       1.82606061       0.00000000       0.00000000      29.66400528
2
Properties=species:S:1:pos:R:3:forces:R:3 energy=7.183982291105573 pbc="F F F"
Cd       0.00000000       0.00000000       0.00000000       0.00000000       0.00000000     -25.31961441
Cd       0.00000000       0.00000000       1.88484848       0.00000000       0.00000000      25.31961441
2
Properties=species:S:1:pos:R:3:forces:R:3 energy=5.8047730373021915 pbc="F F F"
Cd       0.00000000       0.00000000       0.00000000       0.00000000       0.00000000     -21.68988991
Cd       0.00000000       0.00000000       1.94363636       0.00000000       0.00000000      21.68988991
2
Properties=species:S:1:pos:R:3:forces:R:3 energy=4.625842226583869 pbc="F F F"
Cd       0.00000000       0.00000000       0.00000000       0.00000000       0.00000000     -18.47092247
Cd       0.00000000       0.00000000       2.00242424       0.00000000       0.00000000      18.47092247
2
Properties=species:S:1:pos:R:3:forces:R:3 energy=3.627655195894681 pbc="F F F"
Cd       0.00000000       0.00000000       0.00000000       0.00000000       0.00000000     -15.53052521
Cd       0.00000000       0.00000000       2.06121212       0.00000000       0.00000000      15.53052521
2
Properties=species:S:1:pos:R:3:forces:R:3 energy=2.794806936050904 pbc="F F F"
Cd       0.00000000       0.00000000       0.00000000       0.00000000       0.00000000     -12.84790802
Cd       0.00000000       0.00000000       2.12000000       0.00000000       0.00000000      12.84790802
2
Properties=species:S:1:pos:R:3:forces:R:3 energy=2.1115259419871664 pbc="F F F"
Cd       0.00000000       0.00000000       0.00000000       0.00000000       0.00000000     -10.44719505
Cd       0.00000000       0.00000000       2.17878788       0.00000000       0.00000000      10.44719505
2
Properties=species:S:1:pos:R:3:forces:R:3 energy=1.5603804241614256 pbc="F F F"
Cd       0.00000000       0.00000000       0.00000000       0.00000000       0.00000000      -8.35645580
Cd       0.00000000       0.00000000       2.23757576       0.00000000       0.00000000       8.35645580
2
Properties=species:S:1:pos:R:3:forces:R:3 energy=1.1227010985473909 pbc="F F F"
Cd       0.00000000       0.00000000       0.00000000       0.00000000       0.00000000      -6.58696175
Cd       0.00000000       0.00000000       2.29636364       0.00000000       0.00000000       6.58696175
2
Properties=species:S:1:pos:R:3:forces:R:3 energy=0.779826253459835 pbc="F F F"
Cd       0.00000000       0.00000000       0.00000000       0.00000000       0.00000000      -5.12761450
Cd       0.00000000       0.00000000       2.35515152       0.00000000       0.00000000       5.12761450
2
Properties=species:S:1:pos:R:3:forces:R:3 energy=0.5142990603000615 pbc="F F F"
Cd       0.00000000       0.00000000       0.00000000       0.00000000       0.00000000      -3.94968557
Cd       0.00000000       0.00000000       2.41393939       0.00000000       0.00000000       3.94968557
2
Properties=species:S:1:pos:R:3:forces:R:3 energy=0.31065309168560673 pbc="F F F"
Cd       0.00000000       0.00000000       0.00000000       0.00000000       0.00000000      -3.01592803
Cd       0.00000000       0.00000000       2.47272727       0.00000000       0.00000000       3.01592803
2
Properties=species:S:1:pos:R:3:forces:R:3 energy=0.15566196651684455 pbc="F F F"
Cd       0.00000000       0.00000000       0.00000000       0.00000000       0.00000000      -2.28830719
Cd       0.00000000       0.00000000       2.53151515       0.00000000       0.00000000       2.28830719
2
Properties=species:S:1:pos:R:3:forces:R:3 energy=0.038248524924905054 pbc="F F F"
Cd       0.00000000       0.00000000       0.00000000       0.00000000       0.00000000      -1.73205125
Cd       0.00000000       0.00000000       2.59030303       0.00000000       0.00000000       1.73205125
2
Properties=species:S:1:pos:R:3:forces:R:3 energy=-0.05074006691725984 pbc="F F F"
Cd       0.00000000       0.00000000       0.00000000       0.00000000       0.00000000      -1.31647432
Cd       0.00000000       0.00000000       2.64909091       0.00000000       0.00000000       1.31647432
2
Properties=species:S:1:pos:R:3:forces:R:3 energy=-0.11875714659482911 pbc="F F F"
Cd       0.00000000       0.00000000       0.00000000       0.00000000       0.00000000      -1.01428092
Cd       0.00000000       0.00000000       2.70787879       0.00000000       0.00000000       1.01428092
2
Properties=species:S:1:pos:R:3:forces:R:3 energy=-0.17172854059495507 pbc="F F F"
Cd       0.00000000       0.00000000       0.00000000       0.00000000       0.00000000      -0.80059588
Cd       0.00000000       0.00000000       2.76666667       0.00000000       0.00000000       0.80059588
2
Properties=species:S:1:pos:R:3:forces:R:3 energy=-0.2141602327564476 pbc="F F F"
Cd       0.00000000       0.00000000       0.00000000       0.00000000       0.00000000      -0.65183264
Cd       0.00000000       0.00000000       2.82545455       0.00000000       0.00000000       0.65183264
2
Properties=species:S:1:pos:R:3:forces:R:3 energy=-0.24918619917854898 pbc="F F F"
Cd       0.00000000       0.00000000       0.00000000       0.00000000       0.00000000      -0.54486775
Cd       0.00000000       0.00000000       2.88424242       0.00000000       0.00000000       0.54486775
2
Properties=species:S:1:pos:R:3:forces:R:3 energy=-0.2786370865969822 pbc="F F F"
Cd       0.00000000       0.00000000       0.00000000       0.00000000       0.00000000      -0.45933121
Cd       0.00000000       0.00000000       2.94303030       0.00000000       0.00000000       0.45933121
2
Properties=species:S:1:pos:R:3:forces:R:3 energy=-0.3033767150142002 pbc="F F F"
Cd       0.00000000       0.00000000       0.00000000       0.00000000       0.00000000      -0.38357523
Cd       0.00000000       0.00000000       3.00181818       0.00000000       0.00000000       0.38357523
2
Properties=species:S:1:pos:R:3:forces:R:3 energy=-0.3238835733685439 pbc="F F F"
Cd       0.00000000       0.00000000       0.00000000       0.00000000       0.00000000      -0.31537220
Cd       0.00000000       0.00000000       3.06060606       0.00000000       0.00000000       0.31537220
2
Properties=species:S:1:pos:R:3:forces:R:3 energy=-0.34059964813714777 pbc="F F F"
Cd       0.00000000       0.00000000       0.00000000       0.00000000       0.00000000      -0.25437695
Cd       0.00000000       0.00000000       3.11939394       0.00000000       0.00000000       0.25437695
2
Properties=species:S:1:pos:R:3:forces:R:3 energy=-0.35389162348600817 pbc="F F F"
Cd       0.00000000       0.00000000       0.00000000       0.00000000       0.00000000      -0.19848703
Cd       0.00000000       0.00000000       3.17818182       0.00000000       0.00000000       0.19848703
2
Properties=species:S:1:pos:R:3:forces:R:3 energy=-0.36400509580164586 pbc="F F F"
Cd       0.00000000       0.00000000       0.00000000       0.00000000       0.00000000      -0.14615408
Cd       0.00000000       0.00000000       3.23696970       0.00000000       0.00000000       0.14615408
2
Properties=species:S:1:pos:R:3:forces:R:3 energy=-0.3711537723092162 pbc="F F F"
Cd       0.00000000       0.00000000       0.00000000       0.00000000       0.00000000      -0.09784460
Cd       0.00000000       0.00000000       3.29575758       0.00000000       0.00000000       0.09784460
2
Properties=species:S:1:pos:R:3:forces:R:3 energy=-0.3756237541132172 pbc="F F F"
Cd       0.00000000       0.00000000       0.00000000       0.00000000       0.00000000      -0.05537876
Cd       0.00000000       0.00000000       3.35454545       0.00000000       0.00000000       0.05537876
2
Properties=species:S:1:pos:R:3:forces:R:3 energy=-0.3778194380512605 pbc="F F F"
Cd       0.00000000       0.00000000       0.00000000       0.00000000       0.00000000      -0.02076602
Cd       0.00000000       0.00000000       3.41333333       0.00000000       0.00000000       0.02076602
2
Properties=species:S:1:pos:R:3:forces:R:3 energy=-0.37824634038754507 pbc="F F F"
Cd       0.00000000       0.00000000       0.00000000       0.00000000       0.00000000       0.00465547
Cd       0.00000000       0.00000000       3.47212121       0.00000000       0.00000000      -0.00465547
2
Properties=species:S:1:pos:R:3:forces:R:3 energy=-0.37745702081376886 pbc="F F F"
Cd       0.00000000       0.00000000       0.00000000       0.00000000       0.00000000       0.02067057
Cd       0.00000000       0.00000000       3.53090909       0.00000000       0.00000000      -0.02067057
2
Properties=species:S:1:pos:R:3:forces:R:3 energy=-0.37598190681545635 pbc="F F F"
Cd       0.00000000       0.00000000       0.00000000       0.00000000       0.00000000       0.02824367
Cd       0.00000000       0.00000000       3.58969697       0.00000000       0.00000000      -0.02824367
2
Properties=species:S:1:pos:R:3:forces:R:3 energy=-0.37426554238066 pbc="F F F"
Cd       0.00000000       0.00000000       0.00000000       0.00000000       0.00000000       0.02923579
Cd       0.00000000       0.00000000       3.64848485       0.00000000       0.00000000      -0.02923579
2
Properties=species:S:1:pos:R:3:forces:R:3 energy=-0.3726285085955503 pbc="F F F"
Cd       0.00000000       0.00000000       0.00000000       0.00000000       0.00000000       0.02593641
Cd       0.00000000       0.00000000       3.70727273       0.00000000       0.00000000      -0.02593641
2
Properties=species:S:1:pos:R:3:forces:R:3 energy=-0.3712561265643605 pbc="F F F"
Cd       0.00000000       0.00000000       0.00000000       0.00000000       0.00000000       0.02057927
Cd       0.00000000       0.00000000       3.76606061       0.00000000       0.00000000      -0.02057927
2
Properties=species:S:1:pos:R:3:forces:R:3 energy=-0.3702132622439933 pbc="F F F"
Cd       0.00000000       0.00000000       0.00000000       0.00000000       0.00000000       0.01498233
Cd       0.00000000       0.00000000       3.82484848       0.00000000       0.00000000      -0.01498233
2
Properties=species:S:1:pos:R:3:forces:R:3 energy=-0.36947485140177116 pbc="F F F"
Cd       0.00000000       0.00000000       0.00000000       0.00000000       0.00000000       0.01036897
Cd       0.00000000       0.00000000       3.88363636       0.00000000       0.00000000      -0.01036897
2
Properties=species:S:1:pos:R:3:forces:R:3 energy=-0.3689622510691235 pbc="F F F"
Cd       0.00000000       0.00000000       0.00000000       0.00000000       0.00000000       0.00735761
Cd       0.00000000       0.00000000       3.94242424       0.00000000       0.00000000      -0.00735761
2
Properties=species:S:1:pos:R:3:forces:R:3 energy=-0.3685758260272746 pbc="F F F"
Cd       0.00000000       0.00000000       0.00000000       0.00000000       0.00000000       0.00606748
Cd       0.00000000       0.00000000       4.00121212       0.00000000       0.00000000      -0.00606748
2
Properties=species:S:1:pos:R:3:forces:R:3 energy=-0.3682193126837399 pbc="F F F"
Cd       0.00000000       0.00000000       0.00000000       0.00000000       0.00000000       0.00628399
Cd       0.00000000       0.00000000       4.06000000       0.00000000       0.00000000      -0.00628399
2
Properties=species:S:1:pos:R:3:forces:R:3 energy=-0.3678148830843722 pbc="F F F"
Cd       0.00000000       0.00000000       0.00000000       0.00000000       0.00000000       0.00762733
Cd       0.00000000       0.00000000       4.11878788       0.00000000       0.00000000      -0.00762733
2
Properties=species:S:1:pos:R:3:forces:R:3 energy=-0.3673085552207667 pbc="F F F"
Cd       0.00000000       0.00000000       0.00000000       0.00000000       0.00000000       0.00969000
Cd       0.00000000       0.00000000       4.17757576       0.00000000       0.00000000      -0.00969000
2
Properties=species:S:1:pos:R:3:forces:R:3 energy=-0.3666684410288846 pbc="F F F"
Cd       0.00000000       0.00000000       0.00000000       0.00000000       0.00000000       0.01212191
Cd       0.00000000       0.00000000       4.23636364       0.00000000       0.00000000      -0.01212191
2
Properties=species:S:1:pos:R:3:forces:R:3 energy=-0.3658811512274042 pbc="F F F"
Cd       0.00000000       0.00000000       0.00000000       0.00000000       0.00000000       0.01466364
Cd       0.00000000       0.00000000       4.29515152       0.00000000       0.00000000      -0.01466364
2
Properties=species:S:1:pos:R:3:forces:R:3 energy=-0.364945791795657 pbc="F F F"
Cd       0.00000000       0.00000000       0.00000000       0.00000000       0.00000000       0.01713724
Cd       0.00000000       0.00000000       4.35393939       0.00000000       0.00000000      -0.01713724
2
Properties=species:S:1:pos:R:3:forces:R:3 energy=-0.36387005753349017 pbc="F F F"
Cd       0.00000000       0.00000000       0.00000000       0.00000000       0.00000000       0.01941501
Cd       0.00000000       0.00000000       4.41272727       0.00000000       0.00000000      -0.01941501
2
Properties=species:S:1:pos:R:3:forces:R:3 energy=-0.3626690196695155 pbc="F F F"
Cd       0.00000000       0.00000000       0.00000000       0.00000000       0.00000000       0.02138504
Cd       0.00000000       0.00000000       4.47151515       0.00000000       0.00000000      -0.02138504
2
Properties=species:S:1:pos:R:3:forces:R:3 energy=-0.36136407727609915 pbc="F F F"
Cd       0.00000000       0.00000000       0.00000000       0.00000000       0.00000000       0.02292986
Cd       0.00000000       0.00000000       4.53030303       0.00000000       0.00000000      -0.02292986
2
Properties=species:S:1:pos:R:3:forces:R:3 energy=-0.3599838038217016 pbc="F F F"
Cd       0.00000000       0.00000000       0.00000000       0.00000000       0.00000000       0.02392411
Cd       0.00000000       0.00000000       4.58909091       0.00000000       0.00000000      -0.02392411
2
Properties=species:S:1:pos:R:3:forces:R:3 energy=-0.35856426490898097 pbc="F F F"
Cd       0.00000000       0.00000000       0.00000000       0.00000000       0.00000000       0.02425000
Cd       0.00000000       0.00000000       4.64787879       0.00000000       0.00000000      -0.02425000
2
Properties=species:S:1:pos:R:3:forces:R:3 energy=-0.35714741036527825 pbc="F F F"
Cd       0.00000000       0.00000000       0.00000000       0.00000000       0.00000000       0.02382302
Cd       0.00000000       0.00000000       4.70666667       0.00000000       0.00000000      -0.02382302
2
Properties=species:S:1:pos:R:3:forces:R:3 energy=-0.3557785853947245 pbc="F F F"
Cd       0.00000000       0.00000000       0.00000000       0.00000000       0.00000000       0.02262128
Cd       0.00000000       0.00000000       4.76545455       0.00000000       0.00000000      -0.02262128
2
Properties=species:S:1:pos:R:3:forces:R:3 energy=-0.35450172548471615 pbc="F F F"
Cd       0.00000000       0.00000000       0.00000000       0.00000000       0.00000000       0.02070826
Cd       0.00000000       0.00000000       4.82424242       0.00000000       0.00000000      -0.02070826
2
Properties=species:S:1:pos:R:3:forces:R:3 energy=-0.3533545832825995 pbc="F F F"
Cd       0.00000000       0.00000000       0.00000000       0.00000000       0.00000000       0.01824521
Cd       0.00000000       0.00000000       4.88303030       0.00000000       0.00000000      -0.01824521
2
Properties=species:S:1:pos:R:3:forces:R:3 energy=-0.35236250882978226 pbc="F F F"
Cd       0.00000000       0.00000000       0.00000000       0.00000000       0.00000000       0.01548016
Cd       0.00000000       0.00000000       4.94181818       0.00000000       0.00000000      -0.01548016
2
Properties=species:S:1:pos:R:3:forces:R:3 energy=-0.3515345241587099 pbc="F F F"
Cd       0.00000000       0.00000000       0.00000000       0.00000000       0.00000000       0.01270999
Cd       0.00000000       0.00000000       5.00060606       0.00000000       0.00000000      -0.01270999
2
Properties=species:S:1:pos:R:3:forces:R:3 energy=-0.3508629646650617 pbc="F F F"
Cd       0.00000000       0.00000000       0.00000000       0.00000000       0.00000000       0.01019727
Cd       0.00000000       0.00000000       5.05939394       0.00000000       0.00000000      -0.01019727
2
Properties=species:S:1:pos:R:3:forces:R:3 energy=-0.3503279380767436 pbc="F F F"
Cd       0.00000000       0.00000000       0.00000000       0.00000000       0.00000000       0.00806738
Cd       0.00000000       0.00000000       5.11818182       0.00000000       0.00000000      -0.00806738
2
Properties=species:S:1:pos:R:3:forces:R:3 energy=-0.34990820476143464 pbc="F F F"
Cd       0.00000000       0.00000000       0.00000000       0.00000000       0.00000000       0.00625225
Cd       0.00000000       0.00000000       5.17696970       0.00000000       0.00000000      -0.00625225
2
Properties=species:S:1:pos:R:3:forces:R:3 energy=-0.3495893428549743 pbc="F F F"
Cd       0.00000000       0.00000000       0.00000000       0.00000000       0.00000000       0.00462512
Cd       0.00000000       0.00000000       5.23575758       0.00000000       0.00000000      -0.00462512
2
Properties=species:S:1:pos:R:3:forces:R:3 energy=-0.34935864068486866 pbc="F F F"
Cd       0.00000000       0.00000000       0.00000000       0.00000000       0.00000000       0.00330417
Cd       0.00000000       0.00000000       5.29454545       0.00000000       0.00000000      -0.00330417
2
Properties=species:S:1:pos:R:3:forces:R:3 energy=-0.3491866239581722 pbc="F F F"
Cd       0.00000000       0.00000000       0.00000000       0.00000000       0.00000000       0.00270105
Cd       0.00000000       0.00000000       5.35333333       0.00000000       0.00000000      -0.00270105
2
Properties=species:S:1:pos:R:3:forces:R:3 energy=-0.3490224598681958 pbc="F F F"
Cd       0.00000000       0.00000000       0.00000000       0.00000000       0.00000000       0.00302345
Cd       0.00000000       0.00000000       5.41212121       0.00000000       0.00000000      -0.00302345
2
Properties=species:S:1:pos:R:3:forces:R:3 energy=-0.3488195420343032 pbc="F F F"
Cd       0.00000000       0.00000000       0.00000000       0.00000000       0.00000000       0.00393379
Cd       0.00000000       0.00000000       5.47090909       0.00000000       0.00000000      -0.00393379
2
Properties=species:S:1:pos:R:3:forces:R:3 energy=-0.34855890174807197 pbc="F F F"
Cd       0.00000000       0.00000000       0.00000000       0.00000000       0.00000000       0.00491315
Cd       0.00000000       0.00000000       5.52969697       0.00000000       0.00000000      -0.00491315
2
Properties=species:S:1:pos:R:3:forces:R:3 energy=-0.34824510188043634 pbc="F F F"
Cd       0.00000000       0.00000000       0.00000000       0.00000000       0.00000000       0.00573997
Cd       0.00000000       0.00000000       5.58848485       0.00000000       0.00000000      -0.00573997
2
Properties=species:S:1:pos:R:3:forces:R:3 energy=-0.34788428524137616 pbc="F F F"
Cd       0.00000000       0.00000000       0.00000000       0.00000000       0.00000000       0.00654284
Cd       0.00000000       0.00000000       5.64727273       0.00000000       0.00000000      -0.00654284
2
Properties=species:S:1:pos:R:3:forces:R:3 energy=-0.3474736422728013 pbc="F F F"
Cd       0.00000000       0.00000000       0.00000000       0.00000000       0.00000000       0.00743815
Cd       0.00000000       0.00000000       5.70606061       0.00000000       0.00000000      -0.00743815
2
Properties=species:S:1:pos:R:3:forces:R:3 energy=-0.3470120571052766 pbc="F F F"
Cd       0.00000000       0.00000000       0.00000000       0.00000000       0.00000000       0.00823031
Cd       0.00000000       0.00000000       5.76484848       0.00000000       0.00000000      -0.00823031
2
Properties=species:S:1:pos:R:3:forces:R:3 energy=-0.346513771276875 pbc="F F F"
Cd       0.00000000       0.00000000       0.00000000       0.00000000       0.00000000       0.00864629
Cd       0.00000000       0.00000000       5.82363636       0.00000000       0.00000000      -0.00864629
2
Properties=species:S:1:pos:R:3:forces:R:3 energy=-0.34600344763503854 pbc="F F F"
Cd       0.00000000       0.00000000       0.00000000       0.00000000       0.00000000       0.00865267
Cd       0.00000000       0.00000000       5.88242424       0.00000000       0.00000000      -0.00865267
2
Properties=species:S:1:pos:R:3:forces:R:3 energy=-0.3455015785779743 pbc="F F F"
Cd       0.00000000       0.00000000       0.00000000       0.00000000       0.00000000       0.00839004
Cd       0.00000000       0.00000000       5.94121212       0.00000000       0.00000000      -0.00839004
2
Properties=species:S:1:pos:R:3:forces:R:3 energy=-0.3450200312534185 pbc="F F F"
Cd       0.00000000       0.00000000       0.00000000       0.00000000       0.00000000       0.00797041
Cd       0.00000000       0.00000000       6.00000000       0.00000000       0.00000000      -0.00797041
