2
Properties=species:S:1:pos:R:3:forces:R:3 energy=13200.262288787646 pbc="F F F"
Er       0.00000000       0.00000000       0.00000000       0.00000000       0.00000000 -229006.54687500
Er       0.00000000       0.00000000       0.18000000       0.00000000       0.00000000  229006.54687500
2
Properties=species:S:1:pos:R:3:forces:R:3 energy=5171.389730193896 pbc="F F F"
Er       0.00000000       0.00000000       0.00000000       0.00000000       0.00000000  -76329.08593750
Er       0.00000000       0.00000000       0.23878788       0.00000000       0.00000000   76329.08593750
2
Properties=species:S:1:pos:R:3:forces:R:3 energy=2286.893636443896 pbc="F F F"
Er       0.00000000       0.00000000       0.00000000       0.00000000       0.00000000  -29943.03125000
Er       0.00000000       0.00000000       0.29757576       0.00000000       0.00000000   29943.03125000
2
Properties=species:S:1:pos:R:3:forces:R:3 energy=1101.391439178271 pbc="F F F"
Er       0.00000000       0.00000000       0.00000000       0.00000000       0.00000000  -12995.40429688
Er       0.00000000       0.00000000       0.35636364       0.00000000       0.00000000   12995.40429688
2
Properties=species:S:1:pos:R:3:forces:R:3 energy=569.7281701479735 pbc="F F F"
Er       0.00000000       0.00000000       0.00000000       0.00000000       0.00000000   -6059.93408203
Er       0.00000000       0.00000000       0.41515152       0.00000000       0.00000000    6059.93408203
2
Properties=species:S:1:pos:R:3:forces:R:3 energy=315.2619225893798 pbc="F F F"
Er       0.00000000       0.00000000       0.00000000       0.00000000       0.00000000   -2992.51049805
Er       0.00000000       0.00000000       0.47393939       0.00000000       0.00000000    2992.51049805
2
Properties=species:S:1:pos:R:3:forces:R:3 energy=186.796743171363 pbc="F F F"
Er       0.00000000       0.00000000       0.00000000       0.00000000       0.00000000   -1550.82324219
Er       0.00000000       0.00000000       0.53272727       0.00000000       0.00000000    1550.82324219
2
Properties=species:S:1:pos:R:3:forces:R:3 energy=118.97227267668606 pbc="F F F"
Er       0.00000000       0.00000000       0.00000000       0.00000000       0.00000000    -836.45391846
Er       0.00000000       0.00000000       0.59151515       0.00000000       0.00000000     836.45391846
2
Properties=species:S:1:pos:R:3:forces:R:3 energy=81.85522254380149 pbc="F F F"
Er       0.00000000       0.00000000       0.00000000       0.00000000       0.00000000    -465.06072998
Er       0.00000000       0.00000000       0.65030303       0.00000000       0.00000000     465.06072998
2
Properties=species:S:1:pos:R:3:forces:R:3 energy=61.01347533589367 pbc="F F F"
Er       0.00000000       0.00000000       0.00000000       0.00000000       0.00000000    -263.81445312
Er       0.00000000       0.00000000       0.70909091       0.00000000       0.00000000     263.81445312
2
Properties=species:S:1:pos:R:3:forces:R:3 energy=49.117601413826485 pbc="F F F"
Er       0.00000000       0.00000000       0.00000000       0.00000000       0.00000000    -151.56983948
Er       0.00000000       0.00000000       0.76787879       0.00000000       0.00000000     151.56983948
2
Properties=species:S:1:pos:R:3:forces:R:3 energy=42.25081843646339 pbc="F F F"
Er       0.00000000       0.00000000       0.00000000       0.00000000       0.00000000     -87.94804382
Er       0.00000000       0.00000000       0.82666667       0.00000000       0.00000000      87.94804382
2
Properties=species:S:1:pos:R:3:forces:R:3 energy=38.25726931762276 pbc="F F F"
Er       0.00000000       0.00000000       0.00000000       0.00000000       0.00000000     -51.17318726
Er       0.00000000       0.00000000       0.88545455       0.00000000       0.00000000      51.17318726
2
Properties=species:S:1:pos:R:3:forces:R:3 energy=35.94156147400459 pbc="F F F"
Er       0.00000000       0.00000000       0.00000000       0.00000000       0.00000000     -29.52601433
Er       0.00000000       0.00000000       0.94424242       0.00000000       0.00000000      29.52601433
2
Properties=species:S:1:pos:R:3:forces:R:3 energy=34.60226748390593 pbc="F F F"
Er       0.00000000       0.00000000       0.00000000       0.00000000       0.00000000     -17.33780670
Er       0.00000000       0.00000000       1.00303030       0.00000000       0.00000000      17.33780670
2
Properties=species:S:1:pos:R:3:forces:R:3 energy=33.76875289954888 pbc="F F F"
Er       0.00000000       0.00000000       0.00000000       0.00000000       0.00000000     -12.04801941
Er       0.00000000       0.00000000       1.06181818       0.00000000       0.00000000      12.04801941
2
Properties=species:S:1:pos:R:3:forces:R:3 energy=33.07442157503733 pbc="F F F"
Er       0.00000000       0.00000000       0.00000000       0.00000000       0.00000000     -12.44020271
Er       0.00000000       0.00000000       1.12060606       0.00000000       0.00000000      12.44020271
2
Properties=species:S:1:pos:R:3:forces:R:3 energy=32.215482476899986 pbc="F F F"
Er       0.00000000       0.00000000       0.00000000       0.00000000       0.00000000     -17.43602371
Er       0.00000000       0.00000000       1.17939394       0.00000000       0.00000000      17.43602371
2
Properties=species:S:1:pos:R:3:forces:R:3 energy=30.96425167283978 pbc="F F F"
Er       0.00000000       0.00000000       0.00000000       0.00000000       0.00000000     -25.48332405
Er       0.00000000       0.00000000       1.23818182       0.00000000       0.00000000      25.48332405
2
Properties=species:S:1:pos:R:3:forces:R:3 energy=29.197882597477022 pbc="F F F"
Er       0.00000000       0.00000000       0.00000000       0.00000000       0.00000000     -34.62579346
Er       0.00000000       0.00000000       1.29696970       0.00000000       0.00000000      34.62579346
2
Properties=species:S:1:pos:R:3:forces:R:3 energy=26.90909309510194 pbc="F F F"
Er       0.00000000       0.00000000       0.00000000       0.00000000       0.00000000     -42.95849228
Er       0.00000000       0.00000000       1.35575758       0.00000000       0.00000000      42.95849228
2
Properties=species:S:1:pos:R:3:forces:R:3 energy=24.197475475947154 pbc="F F F"
Er       0.00000000       0.00000000       0.00000000       0.00000000       0.00000000     -48.70422745
Er       0.00000000       0.00000000       1.41454545       0.00000000       0.00000000      48.70422745
2
Properties=species:S:1:pos:R:3:forces:R:3 energy=21.271203567871442 pbc="F F F"
Er       0.00000000       0.00000000       0.00000000       0.00000000       0.00000000     -49.95518875
Er       0.00000000       0.00000000       1.47333333       0.00000000       0.00000000      49.95518875
2
Properties=species:S:1:pos:R:3:forces:R:3 energy=18.430509469195314 pbc="F F F"
Er       0.00000000       0.00000000       0.00000000       0.00000000       0.00000000     -45.92120743
Er       0.00000000       0.00000000       1.53212121       0.00000000       0.00000000      45.92120743
2
Properties=species:S:1:pos:R:3:forces:R:3 energy=15.918593583413093 pbc="F F F"
Er       0.00000000       0.00000000       0.00000000       0.00000000       0.00000000     -39.58663559
Er       0.00000000       0.00000000       1.59090909       0.00000000       0.00000000      39.58663559
2
Properties=species:S:1:pos:R:3:forces:R:3 energy=13.72800600950564 pbc="F F F"
Er       0.00000000       0.00000000       0.00000000       0.00000000       0.00000000     -35.53710938
Er       0.00000000       0.00000000       1.64969697       0.00000000       0.00000000      35.53710938
2
Properties=species:S:1:pos:R:3:forces:R:3 energy=11.678192509574798 pbc="F F F"
Er       0.00000000       0.00000000       0.00000000       0.00000000       0.00000000     -34.54085922
Er       0.00000000       0.00000000       1.70848485       0.00000000       0.00000000      34.54085922
2
Properties=species:S:1:pos:R:3:forces:R:3 energy=9.654382435092828 pbc="F F F"
Er       0.00000000       0.00000000       0.00000000       0.00000000       0.00000000     -34.21007156
Er       0.00000000       0.00000000       1.76727273       0.00000000       0.00000000      34.21007156
2
Properties=species:S:1:pos:R:3:forces:R:3 energy=7.68182643634712 pbc="F F F"
Er       0.00000000       0.00000000       0.00000000       0.00000000       0.00000000     -32.62005234
Er       0.00000000       0.00000000       1.82606061       0.00000000       0.00000000      32.62005234
2
Properties=species:S:1:pos:R:3:forces:R:3 energy=5.849775820847093 pbc="F F F"
Er       0.00000000       0.00000000       0.00000000       0.00000000       0.00000000     -29.49298096
Er       0.00000000       0.00000000       1.88484848       0.00000000       0.00000000      29.49298096
2
Properties=species:S:1:pos:R:3:forces:R:3 energy=4.231057278201717 pbc="F F F"
Er       0.00000000       0.00000000       0.00000000       0.00000000       0.00000000     -25.50764847
Er       0.00000000       0.00000000       1.94363636       0.00000000       0.00000000      25.50764847
2
Properties=species:S:1:pos:R:3:forces:R:3 energy=2.850990011543474 pbc="F F F"
Er       0.00000000       0.00000000       0.00000000       0.00000000       0.00000000     -21.49333382
Er       0.00000000       0.00000000       2.00242424       0.00000000       0.00000000      21.49333382
2
Properties=species:S:1:pos:R:3:forces:R:3 energy=1.695015596225477 pbc="F F F"
Er       0.00000000       0.00000000       0.00000000       0.00000000       0.00000000     -17.91851616
Er       0.00000000       0.00000000       2.06121212       0.00000000       0.00000000      17.91851616
2
Properties=species:S:1:pos:R:3:forces:R:3 energy=0.7351610838661978 pbc="F F F"
Er       0.00000000       0.00000000       0.00000000       0.00000000       0.00000000     -14.80191612
Er       0.00000000       0.00000000       2.12000000       0.00000000       0.00000000      14.80191612
2
Properties=species:S:1:pos:R:3:forces:R:3 energy=-0.0519761648166501 pbc="F F F"
Er       0.00000000       0.00000000       0.00000000       0.00000000       0.00000000     -12.02912712
Er       0.00000000       0.00000000       2.17878788       0.00000000       0.00000000      12.02912712
2
Properties=species:S:1:pos:R:3:forces:R:3 energy=-0.6855064075452101 pbc="F F F"
Er       0.00000000       0.00000000       0.00000000       0.00000000       0.00000000      -9.58158398
Er       0.00000000       0.00000000       2.23757576       0.00000000       0.00000000       9.58158398
2
Properties=species:S:1:pos:R:3:forces:R:3 energy=-1.1857932863509428 pbc="F F F"
Er       0.00000000       0.00000000       0.00000000       0.00000000       0.00000000      -7.50380850
Er       0.00000000       0.00000000       2.29636364       0.00000000       0.00000000       7.50380850
2
Properties=species:S:1:pos:R:3:forces:R:3 energy=-1.5756406916844814 pbc="F F F"
Er       0.00000000       0.00000000       0.00000000       0.00000000       0.00000000      -5.82603359
Er       0.00000000       0.00000000       2.35515152       0.00000000       0.00000000       5.82603359
2
Properties=species:S:1:pos:R:3:forces:R:3 energy=-1.8783788661913834 pbc="F F F"
Er       0.00000000       0.00000000       0.00000000       0.00000000       0.00000000      -4.53327131
Er       0.00000000       0.00000000       2.41393939       0.00000000       0.00000000       4.53327131
2
Properties=species:S:1:pos:R:3:forces:R:3 energy=-2.114795757194381 pbc="F F F"
Er       0.00000000       0.00000000       0.00000000       0.00000000       0.00000000      -3.55275106
Er       0.00000000       0.00000000       2.47272727       0.00000000       0.00000000       3.55275106
2
Properties=species:S:1:pos:R:3:forces:R:3 energy=-2.2999511737727123 pbc="F F F"
Er       0.00000000       0.00000000       0.00000000       0.00000000       0.00000000      -2.76959443
Er       0.00000000       0.00000000       2.53151515       0.00000000       0.00000000       2.76959443
2
Properties=species:S:1:pos:R:3:forces:R:3 energy=-2.442367000889993 pbc="F F F"
Er       0.00000000       0.00000000       0.00000000       0.00000000       0.00000000      -2.08752918
Er       0.00000000       0.00000000       2.59030303       0.00000000       0.00000000       2.08752918
2
Properties=species:S:1:pos:R:3:forces:R:3 energy=-2.546673546091953 pbc="F F F"
Er       0.00000000       0.00000000       0.00000000       0.00000000       0.00000000      -1.47260773
Er       0.00000000       0.00000000       2.64909091       0.00000000       0.00000000       1.47260773
2
Properties=species:S:1:pos:R:3:forces:R:3 energy=-2.6171890246683756 pbc="F F F"
Er       0.00000000       0.00000000       0.00000000       0.00000000       0.00000000      -0.94392163
Er       0.00000000       0.00000000       2.70787879       0.00000000       0.00000000       0.94392163
2
Properties=species:S:1:pos:R:3:forces:R:3 energy=-2.6600675463240475 pbc="F F F"
Er       0.00000000       0.00000000       0.00000000       0.00000000       0.00000000      -0.53742075
Er       0.00000000       0.00000000       2.76666667       0.00000000       0.00000000       0.53742075
2
Properties=species:S:1:pos:R:3:forces:R:3 energy=-2.6830100955121603 pbc="F F F"
Er       0.00000000       0.00000000       0.00000000       0.00000000       0.00000000      -0.26364672
Er       0.00000000       0.00000000       2.82545455       0.00000000       0.00000000       0.26364672
2
Properties=species:S:1:pos:R:3:forces:R:3 energy=-2.6930150498045817 pbc="F F F"
Er       0.00000000       0.00000000       0.00000000       0.00000000       0.00000000      -0.08853158
Er       0.00000000       0.00000000       2.88424242       0.00000000       0.00000000       0.08853158
2
Properties=species:S:1:pos:R:3:forces:R:3 energy=-2.6942386449050555 pbc="F F F"
Er       0.00000000       0.00000000       0.00000000       0.00000000       0.00000000       0.04410854
Er       0.00000000       0.00000000       2.94303030       0.00000000       0.00000000      -0.04410854
2
Properties=species:S:1:pos:R:3:forces:R:3 energy=-2.6878608130174193 pbc="F F F"
Er       0.00000000       0.00000000       0.00000000       0.00000000       0.00000000       0.17390625
Er       0.00000000       0.00000000       3.00181818       0.00000000       0.00000000      -0.17390625
2
Properties=species:S:1:pos:R:3:forces:R:3 energy=-2.673691193401105 pbc="F F F"
Er       0.00000000       0.00000000       0.00000000       0.00000000       0.00000000       0.30817500
Er       0.00000000       0.00000000       3.06060606       0.00000000       0.00000000      -0.30817500
2
Properties=species:S:1:pos:R:3:forces:R:3 energy=-2.651771127824661 pbc="F F F"
Er       0.00000000       0.00000000       0.00000000       0.00000000       0.00000000       0.43520287
Er       0.00000000       0.00000000       3.11939394       0.00000000       0.00000000      -0.43520287
2
Properties=species:S:1:pos:R:3:forces:R:3 energy=-2.6228843174842273 pbc="F F F"
Er       0.00000000       0.00000000       0.00000000       0.00000000       0.00000000       0.54406118
Er       0.00000000       0.00000000       3.17818182       0.00000000       0.00000000      -0.54406118
2
Properties=species:S:1:pos:R:3:forces:R:3 energy=-2.588198596256645 pbc="F F F"
Er       0.00000000       0.00000000       0.00000000       0.00000000       0.00000000       0.63290048
Er       0.00000000       0.00000000       3.23696970       0.00000000       0.00000000      -0.63290048
2
Properties=species:S:1:pos:R:3:forces:R:3 energy=-2.5487761208953486 pbc="F F F"
Er       0.00000000       0.00000000       0.00000000       0.00000000       0.00000000       0.70623446
Er       0.00000000       0.00000000       3.29575758       0.00000000       0.00000000      -0.70623446
2
Properties=species:S:1:pos:R:3:forces:R:3 energy=-2.50535195520634 pbc="F F F"
Er       0.00000000       0.00000000       0.00000000       0.00000000       0.00000000       0.76987499
Er       0.00000000       0.00000000       3.35454545       0.00000000       0.00000000      -0.76987499
2
Properties=species:S:1:pos:R:3:forces:R:3 energy=-2.458357037587189 pbc="F F F"
Er       0.00000000       0.00000000       0.00000000       0.00000000       0.00000000       0.82832783
Er       0.00000000       0.00000000       3.41333333       0.00000000       0.00000000      -0.82832783
2
Properties=species:S:1:pos:R:3:forces:R:3 energy=-2.408011491390481 pbc="F F F"
Er       0.00000000       0.00000000       0.00000000       0.00000000       0.00000000       0.88411105
Er       0.00000000       0.00000000       3.47212121       0.00000000       0.00000000      -0.88411105
2
Properties=species:S:1:pos:R:3:forces:R:3 energy=-2.3544509811071643 pbc="F F F"
Er       0.00000000       0.00000000       0.00000000       0.00000000       0.00000000       0.93762904
Er       0.00000000       0.00000000       3.53090909       0.00000000       0.00000000      -0.93762904
2
Properties=species:S:1:pos:R:3:forces:R:3 energy=-2.297838295589243 pbc="F F F"
Er       0.00000000       0.00000000       0.00000000       0.00000000       0.00000000       0.98759782
Er       0.00000000       0.00000000       3.58969697       0.00000000       0.00000000      -0.98759782
2
Properties=species:S:1:pos:R:3:forces:R:3 energy=-2.2384406153484053 pbc="F F F"
Er       0.00000000       0.00000000       0.00000000       0.00000000       0.00000000       1.03210402
Er       0.00000000       0.00000000       3.64848485       0.00000000       0.00000000      -1.03210402
2
Properties=species:S:1:pos:R:3:forces:R:3 energy=-2.1766256068238348 pbc="F F F"
Er       0.00000000       0.00000000       0.00000000       0.00000000       0.00000000       1.06963003
Er       0.00000000       0.00000000       3.70727273       0.00000000       0.00000000      -1.06963003
2
Properties=species:S:1:pos:R:3:forces:R:3 energy=-2.1128307804271027 pbc="F F F"
Er       0.00000000       0.00000000       0.00000000       0.00000000       0.00000000       1.09932697
Er       0.00000000       0.00000000       3.76606061       0.00000000       0.00000000      -1.09932697
2
Properties=species:S:1:pos:R:3:forces:R:3 energy=-2.0475331543618247 pbc="F F F"
Er       0.00000000       0.00000000       0.00000000       0.00000000       0.00000000       1.12077343
Er       0.00000000       0.00000000       3.82484848       0.00000000       0.00000000      -1.12077343
2
Properties=species:S:1:pos:R:3:forces:R:3 energy=-1.9812178784058823 pbc="F F F"
Er       0.00000000       0.00000000       0.00000000       0.00000000       0.00000000       1.13393486
Er       0.00000000       0.00000000       3.88363636       0.00000000       0.00000000      -1.13393486
2
Properties=species:S:1:pos:R:3:forces:R:3 energy=-1.9143612808497306 pbc="F F F"
Er       0.00000000       0.00000000       0.00000000       0.00000000       0.00000000       1.13937461
Er       0.00000000       0.00000000       3.94242424       0.00000000       0.00000000      -1.13937461
2
Properties=species:S:1:pos:R:3:forces:R:3 energy=-1.8473856830079658 pbc="F F F"
Er       0.00000000       0.00000000       0.00000000       0.00000000       0.00000000       1.13819218
Er       0.00000000       0.00000000       4.00121212       0.00000000       0.00000000      -1.13819218
2
Properties=species:S:1:pos:R:3:forces:R:3 energy=-1.7806485753486017 pbc="F F F"
Er       0.00000000       0.00000000       0.00000000       0.00000000       0.00000000       1.13133168
Er       0.00000000       0.00000000       4.06000000       0.00000000       0.00000000      -1.13133168
2
Properties=species:S:1:pos:R:3:forces:R:3 energy=-1.7144814060296352 pbc="F F F"
Er       0.00000000       0.00000000       0.00000000       0.00000000       0.00000000       1.11868131
Er       0.00000000       0.00000000       4.11878788       0.00000000       0.00000000      -1.11868131
2
Properties=species:S:1:pos:R:3:forces:R:3 energy=-1.6492631825479018 pbc="F F F"
Er       0.00000000       0.00000000       0.00000000       0.00000000       0.00000000       1.09860170
Er       0.00000000       0.00000000       4.17757576       0.00000000       0.00000000      -1.09860170
2
Properties=species:S:1:pos:R:3:forces:R:3 energy=-1.5855121385150481 pbc="F F F"
Er       0.00000000       0.00000000       0.00000000       0.00000000       0.00000000       1.06823623
Er       0.00000000       0.00000000       4.23636364       0.00000000       0.00000000      -1.06823623
2
Properties=species:S:1:pos:R:3:forces:R:3 energy=-1.5239258133213973 pbc="F F F"
Er       0.00000000       0.00000000       0.00000000       0.00000000       0.00000000       1.02448487
Er       0.00000000       0.00000000       4.29515152       0.00000000       0.00000000      -1.02448487
2
Properties=species:S:1:pos:R:3:forces:R:3 energy=-1.4653630020160258 pbc="F F F"
Er       0.00000000       0.00000000       0.00000000       0.00000000       0.00000000       0.96528089
Er       0.00000000       0.00000000       4.35393939       0.00000000       0.00000000      -0.96528089
2
Properties=species:S:1:pos:R:3:forces:R:3 energy=-1.410736648343947 pbc="F F F"
Er       0.00000000       0.00000000       0.00000000       0.00000000       0.00000000       0.89072829
Er       0.00000000       0.00000000       4.41272727       0.00000000       0.00000000      -0.89072829
2
Properties=species:S:1:pos:R:3:forces:R:3 energy=-1.3608787196005119 pbc="F F F"
Er       0.00000000       0.00000000       0.00000000       0.00000000       0.00000000       0.80379456
Er       0.00000000       0.00000000       4.47151515       0.00000000       0.00000000      -0.80379456
2
Properties=species:S:1:pos:R:3:forces:R:3 energy=-1.316358857623781 pbc="F F F"
Er       0.00000000       0.00000000       0.00000000       0.00000000       0.00000000       0.71029162
Er       0.00000000       0.00000000       4.53030303       0.00000000       0.00000000      -0.71029162
2
Properties=species:S:1:pos:R:3:forces:R:3 energy=-1.277341346653996 pbc="F F F"
Er       0.00000000       0.00000000       0.00000000       0.00000000       0.00000000       0.61805719
Er       0.00000000       0.00000000       4.58909091       0.00000000       0.00000000      -0.61805719
2
Properties=species:S:1:pos:R:3:forces:R:3 energy=-1.2435002818368819 pbc="F F F"
Er       0.00000000       0.00000000       0.00000000       0.00000000       0.00000000       0.53553015
Er       0.00000000       0.00000000       4.64787879       0.00000000       0.00000000      -0.53553015
2
Properties=species:S:1:pos:R:3:forces:R:3 energy=-1.214040994049592 pbc="F F F"
Er       0.00000000       0.00000000       0.00000000       0.00000000       0.00000000       0.46999544
Er       0.00000000       0.00000000       4.70666667       0.00000000       0.00000000      -0.46999544
2
Properties=species:S:1:pos:R:3:forces:R:3 energy=-1.1878163054685504 pbc="F F F"
Er       0.00000000       0.00000000       0.00000000       0.00000000       0.00000000       0.42597166
Er       0.00000000       0.00000000       4.76545455       0.00000000       0.00000000      -0.42597166
2
Properties=species:S:1:pos:R:3:forces:R:3 energy=-1.1635196676254562 pbc="F F F"
Er       0.00000000       0.00000000       0.00000000       0.00000000       0.00000000       0.40408123
Er       0.00000000       0.00000000       4.82424242       0.00000000       0.00000000      -0.40408123
2
Properties=species:S:1:pos:R:3:forces:R:3 energy=-1.139942257830979 pbc="F F F"
Er       0.00000000       0.00000000       0.00000000       0.00000000       0.00000000       0.40068695
Er       0.00000000       0.00000000       4.88303030       0.00000000       0.00000000      -0.40068695
2
Properties=species:S:1:pos:R:3:forces:R:3 energy=-1.116187053716215 pbc="F F F"
Er       0.00000000       0.00000000       0.00000000       0.00000000       0.00000000       0.40857378
Er       0.00000000       0.00000000       4.94181818       0.00000000       0.00000000      -0.40857378
2
Properties=species:S:1:pos:R:3:forces:R:3 energy=-1.0918544294252286 pbc="F F F"
Er       0.00000000       0.00000000       0.00000000       0.00000000       0.00000000       0.41898575
Er       0.00000000       0.00000000       5.00060606       0.00000000       0.00000000      -0.41898575
2
Properties=species:S:1:pos:R:3:forces:R:3 energy=-1.0670056533978256 pbc="F F F"
Er       0.00000000       0.00000000       0.00000000       0.00000000       0.00000000       0.42544204
Er       0.00000000       0.00000000       5.05939394       0.00000000       0.00000000      -0.42544204
2
Properties=species:S:1:pos:R:3:forces:R:3 energy=-1.041904936137993 pbc="F F F"
Er       0.00000000       0.00000000       0.00000000       0.00000000       0.00000000       0.42856240
Er       0.00000000       0.00000000       5.11818182       0.00000000       0.00000000      -0.42856240
2
Properties=species:S:1:pos:R:3:forces:R:3 energy=-1.016502193777828 pbc="F F F"
Er       0.00000000       0.00000000       0.00000000       0.00000000       0.00000000       0.43766853
Er       0.00000000       0.00000000       5.17696970       0.00000000       0.00000000      -0.43766853
2
Properties=species:S:1:pos:R:3:forces:R:3 energy=-0.9901419896776075 pbc="F F F"
Er       0.00000000       0.00000000       0.00000000       0.00000000       0.00000000       0.46167758
Er       0.00000000       0.00000000       5.23575758       0.00000000       0.00000000      -0.46167758
2
Properties=species:S:1:pos:R:3:forces:R:3 energy=-0.9620886642654918 pbc="F F F"
Er       0.00000000       0.00000000       0.00000000       0.00000000       0.00000000       0.49159014
Er       0.00000000       0.00000000       5.29454545       0.00000000       0.00000000      -0.49159014
2
Properties=species:S:1:pos:R:3:forces:R:3 energy=-0.9327944060161394 pbc="F F F"
Er       0.00000000       0.00000000       0.00000000       0.00000000       0.00000000       0.49873447
Er       0.00000000       0.00000000       5.35333333       0.00000000       0.00000000      -0.49873447
2
Properties=species:S:1:pos:R:3:forces:R:3 energy=-0.9042909720082184 pbc="F F F"
Er       0.00000000       0.00000000       0.00000000       0.00000000       0.00000000       0.46446458
Er       0.00000000       0.00000000       5.41212121       0.00000000       0.00000000      -0.46446458
2
Properties=species:S:1:pos:R:3:forces:R:3 energy=-0.8786469296482913 pbc="F F F"
Er       0.00000000       0.00000000       0.00000000       0.00000000       0.00000000       0.40769848
Er       0.00000000       0.00000000       5.47090909       0.00000000       0.00000000      -0.40769848
2
Properties=species:S:1:pos:R:3:forces:R:3 energy=-0.855845769330676 pbc="F F F"
Er       0.00000000       0.00000000       0.00000000       0.00000000       0.00000000       0.37652338
Er       0.00000000       0.00000000       5.52969697       0.00000000       0.00000000      -0.37652338
2
Properties=species:S:1:pos:R:3:forces:R:3 energy=-0.8330489514414918 pbc="F F F"
Er       0.00000000       0.00000000       0.00000000       0.00000000       0.00000000       0.41133437
Er       0.00000000       0.00000000       5.58848485       0.00000000       0.00000000      -0.41133437
2
Properties=species:S:1:pos:R:3:forces:R:3 energy=-0.806350750880116 pbc="F F F"
Er       0.00000000       0.00000000       0.00000000       0.00000000       0.00000000       0.50251210
Er       0.00000000       0.00000000       5.64727273       0.00000000       0.00000000      -0.50251210
2
Properties=species:S:1:pos:R:3:forces:R:3 energy=-0.7742135289951498 pbc="F F F"
Er       0.00000000       0.00000000       0.00000000       0.00000000       0.00000000       0.58067816
Er       0.00000000       0.00000000       5.70606061       0.00000000       0.00000000      -0.58067816
2
Properties=species:S:1:pos:R:3:forces:R:3 energy=-0.7398706700799371 pbc="F F F"
Er       0.00000000       0.00000000       0.00000000       0.00000000       0.00000000       0.56552696
Er       0.00000000       0.00000000       5.76484848       0.00000000       0.00000000      -0.56552696
2
Properties=species:S:1:pos:R:3:forces:R:3 energy=-0.7100038871967577 pbc="F F F"
Er       0.00000000       0.00000000       0.00000000       0.00000000       0.00000000       0.43475619
Er       0.00000000       0.00000000       5.82363636       0.00000000       0.00000000      -0.43475619
2
Properties=species:S:1:pos:R:3:forces:R:3 energy=-0.6899855725112344 pbc="F F F"
Er       0.00000000       0.00000000       0.00000000       0.00000000       0.00000000       0.24677666
Er       0.00000000       0.00000000       5.88242424       0.00000000       0.00000000      -0.24677666
2
Properties=species:S:1:pos:R:3:forces:R:3 energy=-0.6803506169702982 pbc="F F F"
Er       0.00000000       0.00000000       0.00000000       0.00000000       0.00000000       0.09151759
Er       0.00000000       0.00000000       5.94121212       0.00000000       0.00000000      -0.09151759
2
Properties=species:S:1:pos:R:3:forces:R:3 energy=-0.6772892298407053 pbc="F F F"
Er       0.00000000       0.00000000       0.00000000       0.00000000       0.00000000       0.03216203
Er       0.00000000       0.00000000       6.00000000       0.00000000       0.00000000      -0.03216203
