2
Properties=species:S:1:pos:R:3:forces:R:3 energy=11875.822899815133 pbc="F F F"
Eu       0.00000000       0.00000000       0.00000000       0.00000000       0.00000000 -204406.28125000
Eu       0.00000000       0.00000000       0.18000000       0.00000000       0.00000000  204406.28125000
2
Properties=species:S:1:pos:R:3:forces:R:3 energy=4685.8478021588835 pbc="F F F"
Eu       0.00000000       0.00000000       0.00000000       0.00000000       0.00000000  -68678.46875000
Eu       0.00000000       0.00000000       0.23878788       0.00000000       0.00000000   68678.46875000
2
Properties=species:S:1:pos:R:3:forces:R:3 energy=2081.296776768259 pbc="F F F"
Eu       0.00000000       0.00000000       0.00000000       0.00000000       0.00000000  -27169.74218750
Eu       0.00000000       0.00000000       0.29757576       0.00000000       0.00000000   27169.74218750
2
Properties=species:S:1:pos:R:3:forces:R:3 energy=1001.601281165958 pbc="F F F"
Eu       0.00000000       0.00000000       0.00000000       0.00000000       0.00000000  -11892.98535156
Eu       0.00000000       0.00000000       0.35636364       0.00000000       0.00000000   11892.98535156
2
Properties=species:S:1:pos:R:3:forces:R:3 energy=513.2998895643955 pbc="F F F"
Eu       0.00000000       0.00000000       0.00000000       0.00000000       0.00000000   -5590.50585938
Eu       0.00000000       0.00000000       0.41515152       0.00000000       0.00000000    5590.50585938
2
Properties=species:S:1:pos:R:3:forces:R:3 energy=277.7835016281102 pbc="F F F"
Eu       0.00000000       0.00000000       0.00000000       0.00000000       0.00000000   -2780.58496094
Eu       0.00000000       0.00000000       0.47393939       0.00000000       0.00000000    2780.58496094
2
Properties=species:S:1:pos:R:3:forces:R:3 energy=158.0642328356177 pbc="F F F"
Eu       0.00000000       0.00000000       0.00000000       0.00000000       0.00000000   -1450.43273926
Eu       0.00000000       0.00000000       0.53272727       0.00000000       0.00000000    1450.43273926
2
Properties=species:S:1:pos:R:3:forces:R:3 energy=94.44696904800804 pbc="F F F"
Eu       0.00000000       0.00000000       0.00000000       0.00000000       0.00000000    -787.39208984
Eu       0.00000000       0.00000000       0.59151515       0.00000000       0.00000000     787.39208984
2
Properties=species:S:1:pos:R:3:forces:R:3 energy=59.39926245667542 pbc="F F F"
Eu       0.00000000       0.00000000       0.00000000       0.00000000       0.00000000    -440.79931641
Eu       0.00000000       0.00000000       0.65030303       0.00000000       0.00000000     440.79931641
2
Properties=species:S:1:pos:R:3:forces:R:3 energy=39.58802132578001 pbc="F F F"
Eu       0.00000000       0.00000000       0.00000000       0.00000000       0.00000000    -251.50173950
Eu       0.00000000       0.00000000       0.70909091       0.00000000       0.00000000     251.50173950
2
Properties=species:S:1:pos:R:3:forces:R:3 energy=28.2421828107053 pbc="F F F"
Eu       0.00000000       0.00000000       0.00000000       0.00000000       0.00000000    -144.36801147
Eu       0.00000000       0.00000000       0.76787879       0.00000000       0.00000000     144.36801147
2
Properties=species:S:1:pos:R:3:forces:R:3 energy=21.73055565778919 pbc="F F F"
Eu       0.00000000       0.00000000       0.00000000       0.00000000       0.00000000     -82.87266541
Eu       0.00000000       0.00000000       0.82666667       0.00000000       0.00000000      82.87266541
2
Properties=species:S:1:pos:R:3:forces:R:3 energy=17.972686000686647 pbc="F F F"
Eu       0.00000000       0.00000000       0.00000000       0.00000000       0.00000000     -48.43497086
Eu       0.00000000       0.00000000       0.88545455       0.00000000       0.00000000      48.43497086
2
Properties=species:S:1:pos:R:3:forces:R:3 energy=15.722178734649338 pbc="F F F"
Eu       0.00000000       0.00000000       0.00000000       0.00000000       0.00000000     -30.09132576
Eu       0.00000000       0.00000000       0.94424242       0.00000000       0.00000000      30.09132576
2
Properties=species:S:1:pos:R:3:forces:R:3 energy=14.27027265397077 pbc="F F F"
Eu       0.00000000       0.00000000       0.00000000       0.00000000       0.00000000     -20.25270081
Eu       0.00000000       0.00000000       1.00303030       0.00000000       0.00000000      20.25270081
2
Properties=species:S:1:pos:R:3:forces:R:3 energy=13.260129541836045 pbc="F F F"
Eu       0.00000000       0.00000000       0.00000000       0.00000000       0.00000000     -14.64971924
Eu       0.00000000       0.00000000       1.06181818       0.00000000       0.00000000      14.64971924
2
Properties=species:S:1:pos:R:3:forces:R:3 energy=12.489421679477152 pbc="F F F"
Eu       0.00000000       0.00000000       0.00000000       0.00000000       0.00000000     -12.06054974
Eu       0.00000000       0.00000000       1.12060606       0.00000000       0.00000000      12.06054974
2
Properties=species:S:1:pos:R:3:forces:R:3 energy=11.78340924508671 pbc="F F F"
Eu       0.00000000       0.00000000       0.00000000       0.00000000       0.00000000     -12.45933533
Eu       0.00000000       0.00000000       1.17939394       0.00000000       0.00000000      12.45933533
2
Properties=species:S:1:pos:R:3:forces:R:3 energy=10.967571758782302 pbc="F F F"
Eu       0.00000000       0.00000000       0.00000000       0.00000000       0.00000000     -15.74618340
Eu       0.00000000       0.00000000       1.23818182       0.00000000       0.00000000      15.74618340
2
Properties=species:S:1:pos:R:3:forces:R:3 energy=9.88727285968204 pbc="F F F"
Eu       0.00000000       0.00000000       0.00000000       0.00000000       0.00000000     -21.29410934
Eu       0.00000000       0.00000000       1.29696970       0.00000000       0.00000000      21.29410934
2
Properties=species:S:1:pos:R:3:forces:R:3 energy=8.444039977913658 pbc="F F F"
Eu       0.00000000       0.00000000       0.00000000       0.00000000       0.00000000     -27.85207367
Eu       0.00000000       0.00000000       1.35575758       0.00000000       0.00000000      27.85207367
2
Properties=species:S:1:pos:R:3:forces:R:3 energy=6.6199383332897535 pbc="F F F"
Eu       0.00000000       0.00000000       0.00000000       0.00000000       0.00000000     -34.04781342
Eu       0.00000000       0.00000000       1.41454545       0.00000000       0.00000000      34.04781342
2
Properties=species:S:1:pos:R:3:forces:R:3 energy=4.468133399615207 pbc="F F F"
Eu       0.00000000       0.00000000       0.00000000       0.00000000       0.00000000     -38.86252594
Eu       0.00000000       0.00000000       1.47333333       0.00000000       0.00000000      38.86252594
2
Properties=species:S:1:pos:R:3:forces:R:3 energy=2.0907351144580346 pbc="F F F"
Eu       0.00000000       0.00000000       0.00000000       0.00000000       0.00000000     -41.64307022
Eu       0.00000000       0.00000000       1.53212121       0.00000000       0.00000000      41.64307022
2
Properties=species:S:1:pos:R:3:forces:R:3 energy=-0.38198456621115867 pbc="F F F"
Eu       0.00000000       0.00000000       0.00000000       0.00000000       0.00000000     -42.08311462
Eu       0.00000000       0.00000000       1.59090909       0.00000000       0.00000000      42.08311462
2
Properties=species:S:1:pos:R:3:forces:R:3 energy=-2.8114366863727462 pbc="F F F"
Eu       0.00000000       0.00000000       0.00000000       0.00000000       0.00000000     -40.19453812
Eu       0.00000000       0.00000000       1.64969697       0.00000000       0.00000000      40.19453812
2
Properties=species:S:1:pos:R:3:forces:R:3 energy=-5.067462783635421 pbc="F F F"
Eu       0.00000000       0.00000000       0.00000000       0.00000000       0.00000000     -36.25666046
Eu       0.00000000       0.00000000       1.70848485       0.00000000       0.00000000      36.25666046
2
Properties=species:S:1:pos:R:3:forces:R:3 energy=-7.047333944618131 pbc="F F F"
Eu       0.00000000       0.00000000       0.00000000       0.00000000       0.00000000     -30.95488358
Eu       0.00000000       0.00000000       1.76727273       0.00000000       0.00000000      30.95488358
2
Properties=species:S:1:pos:R:3:forces:R:3 energy=-8.700529209052812 pbc="F F F"
Eu       0.00000000       0.00000000       0.00000000       0.00000000       0.00000000     -25.31374359
Eu       0.00000000       0.00000000       1.82606061       0.00000000       0.00000000      25.31374359
2
Properties=species:S:1:pos:R:3:forces:R:3 energy=-10.03346291436388 pbc="F F F"
Eu       0.00000000       0.00000000       0.00000000       0.00000000       0.00000000     -20.15908051
Eu       0.00000000       0.00000000       1.88484848       0.00000000       0.00000000      20.15908051
2
Properties=species:S:1:pos:R:3:forces:R:3 energy=-11.088355093849582 pbc="F F F"
Eu       0.00000000       0.00000000       0.00000000       0.00000000       0.00000000     -15.89512444
Eu       0.00000000       0.00000000       1.94363636       0.00000000       0.00000000      15.89512444
2
Properties=species:S:1:pos:R:3:forces:R:3 energy=-11.922650275609138 pbc="F F F"
Eu       0.00000000       0.00000000       0.00000000       0.00000000       0.00000000     -12.66078758
Eu       0.00000000       0.00000000       2.00242424       0.00000000       0.00000000      12.66078758
2
Properties=species:S:1:pos:R:3:forces:R:3 energy=-12.596055917510425 pbc="F F F"
Eu       0.00000000       0.00000000       0.00000000       0.00000000       0.00000000     -10.39484024
Eu       0.00000000       0.00000000       2.06121212       0.00000000       0.00000000      10.39484024
2
Properties=species:S:1:pos:R:3:forces:R:3 energy=-13.159274057564383 pbc="F F F"
Eu       0.00000000       0.00000000       0.00000000       0.00000000       0.00000000      -8.86384869
Eu       0.00000000       0.00000000       2.12000000       0.00000000       0.00000000       8.86384869
2
Properties=species:S:1:pos:R:3:forces:R:3 energy=-13.646774230571113 pbc="F F F"
Eu       0.00000000       0.00000000       0.00000000       0.00000000       0.00000000      -7.77130127
Eu       0.00000000       0.00000000       2.17878788       0.00000000       0.00000000       7.77130127
2
Properties=species:S:1:pos:R:3:forces:R:3 energy=-14.076843084526905 pbc="F F F"
Eu       0.00000000       0.00000000       0.00000000       0.00000000       0.00000000      -6.87920713
Eu       0.00000000       0.00000000       2.23757576       0.00000000       0.00000000       6.87920713
2
Properties=species:S:1:pos:R:3:forces:R:3 energy=-14.456960261752757 pbc="F F F"
Eu       0.00000000       0.00000000       0.00000000       0.00000000       0.00000000      -6.05960178
Eu       0.00000000       0.00000000       2.29636364       0.00000000       0.00000000       6.05960178
2
Properties=species:S:1:pos:R:3:forces:R:3 energy=-14.789970658265705 pbc="F F F"
Eu       0.00000000       0.00000000       0.00000000       0.00000000       0.00000000      -5.27550793
Eu       0.00000000       0.00000000       2.35515152       0.00000000       0.00000000       5.27550793
2
Properties=species:S:1:pos:R:3:forces:R:3 energy=-15.078106153902313 pbc="F F F"
Eu       0.00000000       0.00000000       0.00000000       0.00000000       0.00000000      -4.53622437
Eu       0.00000000       0.00000000       2.41393939       0.00000000       0.00000000       4.53622437
2
Properties=species:S:1:pos:R:3:forces:R:3 energy=-15.324617444108702 pbc="F F F"
Eu       0.00000000       0.00000000       0.00000000       0.00000000       0.00000000      -3.86286640
Eu       0.00000000       0.00000000       2.47272727       0.00000000       0.00000000       3.86286640
2
Properties=species:S:1:pos:R:3:forces:R:3 energy=-15.533924001227065 pbc="F F F"
Eu       0.00000000       0.00000000       0.00000000       0.00000000       0.00000000      -3.27282882
Eu       0.00000000       0.00000000       2.53151515       0.00000000       0.00000000       3.27282882
2
Properties=species:S:1:pos:R:3:forces:R:3 energy=-15.711254672326922 pbc="F F F"
Eu       0.00000000       0.00000000       0.00000000       0.00000000       0.00000000      -2.77610755
Eu       0.00000000       0.00000000       2.59030303       0.00000000       0.00000000       2.77610755
2
Properties=species:S:1:pos:R:3:forces:R:3 energy=-15.86221619693389 pbc="F F F"
Eu       0.00000000       0.00000000       0.00000000       0.00000000       0.00000000      -2.37559462
Eu       0.00000000       0.00000000       2.64909091       0.00000000       0.00000000       2.37559462
2
Properties=species:S:1:pos:R:3:forces:R:3 energy=-15.992377851690673 pbc="F F F"
Eu       0.00000000       0.00000000       0.00000000       0.00000000       0.00000000      -2.06723857
Eu       0.00000000       0.00000000       2.70787879       0.00000000       0.00000000       2.06723857
2
Properties=species:S:1:pos:R:3:forces:R:3 energy=-16.1068649695265 pbc="F F F"
Eu       0.00000000       0.00000000       0.00000000       0.00000000       0.00000000      -1.83981121
Eu       0.00000000       0.00000000       2.76666667       0.00000000       0.00000000       1.83981121
2
Properties=species:S:1:pos:R:3:forces:R:3 energy=-16.209947104248073 pbc="F F F"
Eu       0.00000000       0.00000000       0.00000000       0.00000000       0.00000000      -1.67619121
Eu       0.00000000       0.00000000       2.82545455       0.00000000       0.00000000       1.67619121
2
Properties=species:S:1:pos:R:3:forces:R:3 energy=-16.30480950333983 pbc="F F F"
Eu       0.00000000       0.00000000       0.00000000       0.00000000       0.00000000      -1.55685067
Eu       0.00000000       0.00000000       2.88424242       0.00000000       0.00000000       1.55685067
2
Properties=species:S:1:pos:R:3:forces:R:3 energy=-16.393513100840305 pbc="F F F"
Eu       0.00000000       0.00000000       0.00000000       0.00000000       0.00000000      -1.46408916
Eu       0.00000000       0.00000000       2.94303030       0.00000000       0.00000000       1.46408916
2
Properties=species:S:1:pos:R:3:forces:R:3 energy=-16.477214942342567 pbc="F F F"
Eu       0.00000000       0.00000000       0.00000000       0.00000000       0.00000000      -1.38499200
Eu       0.00000000       0.00000000       3.00181818       0.00000000       0.00000000       1.38499200
2
Properties=species:S:1:pos:R:3:forces:R:3 energy=-16.556475473393114 pbc="F F F"
Eu       0.00000000       0.00000000       0.00000000       0.00000000       0.00000000      -1.31217492
Eu       0.00000000       0.00000000       3.06060606       0.00000000       0.00000000       1.31217492
2
Properties=species:S:1:pos:R:3:forces:R:3 energy=-16.631556727987416 pbc="F F F"
Eu       0.00000000       0.00000000       0.00000000       0.00000000       0.00000000      -1.24263179
Eu       0.00000000       0.00000000       3.11939394       0.00000000       0.00000000       1.24263179
2
Properties=species:S:1:pos:R:3:forces:R:3 energy=-16.70262851386089 pbc="F F F"
Eu       0.00000000       0.00000000       0.00000000       0.00000000       0.00000000      -1.17572081
Eu       0.00000000       0.00000000       3.17818182       0.00000000       0.00000000       1.17572081
2
Properties=species:S:1:pos:R:3:forces:R:3 energy=-16.769848505902605 pbc="F F F"
Eu       0.00000000       0.00000000       0.00000000       0.00000000       0.00000000      -1.11158550
Eu       0.00000000       0.00000000       3.23696970       0.00000000       0.00000000       1.11158550
2
Properties=species:S:1:pos:R:3:forces:R:3 energy=-16.83339120417663 pbc="F F F"
Eu       0.00000000       0.00000000       0.00000000       0.00000000       0.00000000      -1.05088460
Eu       0.00000000       0.00000000       3.29575758       0.00000000       0.00000000       1.05088460
2
Properties=species:S:1:pos:R:3:forces:R:3 energy=-16.893511133921255 pbc="F F F"
Eu       0.00000000       0.00000000       0.00000000       0.00000000       0.00000000      -0.99562120
Eu       0.00000000       0.00000000       3.35454545       0.00000000       0.00000000       0.99562120
2
Properties=species:S:1:pos:R:3:forces:R:3 energy=-16.950635821216576 pbc="F F F"
Eu       0.00000000       0.00000000       0.00000000       0.00000000       0.00000000      -0.94979793
Eu       0.00000000       0.00000000       3.41333333       0.00000000       0.00000000       0.94979793
2
Properties=species:S:1:pos:R:3:forces:R:3 energy=-17.00546540878532 pbc="F F F"
Eu       0.00000000       0.00000000       0.00000000       0.00000000       0.00000000      -0.91819996
Eu       0.00000000       0.00000000       3.47212121       0.00000000       0.00000000       0.91819996
2
Properties=species:S:1:pos:R:3:forces:R:3 energy=-17.05889674555824 pbc="F F F"
Eu       0.00000000       0.00000000       0.00000000       0.00000000       0.00000000      -0.90166682
Eu       0.00000000       0.00000000       3.53090909       0.00000000       0.00000000       0.90166682
2
Properties=species:S:1:pos:R:3:forces:R:3 energy=-17.111571919734388 pbc="F F F"
Eu       0.00000000       0.00000000       0.00000000       0.00000000       0.00000000      -0.88929713
Eu       0.00000000       0.00000000       3.58969697       0.00000000       0.00000000       0.88929713
2
Properties=species:S:1:pos:R:3:forces:R:3 energy=-17.163058820642604 pbc="F F F"
Eu       0.00000000       0.00000000       0.00000000       0.00000000       0.00000000      -0.85668337
Eu       0.00000000       0.00000000       3.64848485       0.00000000       0.00000000       0.85668337
2
Properties=species:S:1:pos:R:3:forces:R:3 energy=-17.211506571964684 pbc="F F F"
Eu       0.00000000       0.00000000       0.00000000       0.00000000       0.00000000      -0.78494191
Eu       0.00000000       0.00000000       3.70727273       0.00000000       0.00000000       0.78494191
2
Properties=species:S:1:pos:R:3:forces:R:3 energy=-17.254772423112534 pbc="F F F"
Eu       0.00000000       0.00000000       0.00000000       0.00000000       0.00000000      -0.68444109
Eu       0.00000000       0.00000000       3.76606061       0.00000000       0.00000000       0.68444109
2
Properties=species:S:1:pos:R:3:forces:R:3 energy=-17.29195781493989 pbc="F F F"
Eu       0.00000000       0.00000000       0.00000000       0.00000000       0.00000000      -0.58216548
Eu       0.00000000       0.00000000       3.82484848       0.00000000       0.00000000       0.58216548
2
Properties=species:S:1:pos:R:3:forces:R:3 energy=-17.32346719672532 pbc="F F F"
Eu       0.00000000       0.00000000       0.00000000       0.00000000       0.00000000      -0.49182144
Eu       0.00000000       0.00000000       3.88363636       0.00000000       0.00000000       0.49182144
2
Properties=species:S:1:pos:R:3:forces:R:3 energy=-17.3499566824994 pbc="F F F"
Eu       0.00000000       0.00000000       0.00000000       0.00000000       0.00000000      -0.41011676
Eu       0.00000000       0.00000000       3.94242424       0.00000000       0.00000000       0.41011676
2
Properties=species:S:1:pos:R:3:forces:R:3 energy=-17.371704609115078 pbc="F F F"
Eu       0.00000000       0.00000000       0.00000000       0.00000000       0.00000000      -0.32946613
Eu       0.00000000       0.00000000       4.00121212       0.00000000       0.00000000       0.32946613
2
Properties=species:S:1:pos:R:3:forces:R:3 energy=-17.388629615852288 pbc="F F F"
Eu       0.00000000       0.00000000       0.00000000       0.00000000       0.00000000      -0.24571835
Eu       0.00000000       0.00000000       4.06000000       0.00000000       0.00000000       0.24571835
2
Properties=species:S:1:pos:R:3:forces:R:3 energy=-17.40053468599686 pbc="F F F"
Eu       0.00000000       0.00000000       0.00000000       0.00000000       0.00000000      -0.15895660
Eu       0.00000000       0.00000000       4.11878788       0.00000000       0.00000000       0.15895660
2
Properties=species:S:1:pos:R:3:forces:R:3 energy=-17.407312820018866 pbc="F F F"
Eu       0.00000000       0.00000000       0.00000000       0.00000000       0.00000000      -0.07190584
Eu       0.00000000       0.00000000       4.17757576       0.00000000       0.00000000       0.07190584
2
Properties=species:S:1:pos:R:3:forces:R:3 energy=-17.409059068189684 pbc="F F F"
Eu       0.00000000       0.00000000       0.00000000       0.00000000       0.00000000       0.01157002
Eu       0.00000000       0.00000000       4.23636364       0.00000000       0.00000000      -0.01157002
2
Properties=species:S:1:pos:R:3:forces:R:3 energy=-17.406100896366 pbc="F F F"
Eu       0.00000000       0.00000000       0.00000000       0.00000000       0.00000000       0.08748656
Eu       0.00000000       0.00000000       4.29515152       0.00000000       0.00000000      -0.08748656
2
Properties=species:S:1:pos:R:3:forces:R:3 energy=-17.398988659360324 pbc="F F F"
Eu       0.00000000       0.00000000       0.00000000       0.00000000       0.00000000       0.15237050
Eu       0.00000000       0.00000000       4.35393939       0.00000000       0.00000000      -0.15237050
2
Properties=species:S:1:pos:R:3:forces:R:3 energy=-17.38845204140992 pbc="F F F"
Eu       0.00000000       0.00000000       0.00000000       0.00000000       0.00000000       0.20372204
Eu       0.00000000       0.00000000       4.41272727       0.00000000       0.00000000      -0.20372204
2
Properties=species:S:1:pos:R:3:forces:R:3 energy=-17.37532622046148 pbc="F F F"
Eu       0.00000000       0.00000000       0.00000000       0.00000000       0.00000000       0.24035436
Eu       0.00000000       0.00000000       4.47151515       0.00000000       0.00000000      -0.24035436
2
Properties=species:S:1:pos:R:3:forces:R:3 energy=-17.360474756607992 pbc="F F F"
Eu       0.00000000       0.00000000       0.00000000       0.00000000       0.00000000       0.26264724
Eu       0.00000000       0.00000000       4.53030303       0.00000000       0.00000000      -0.26264724
2
Properties=species:S:1:pos:R:3:forces:R:3 energy=-17.344686836017047 pbc="F F F"
Eu       0.00000000       0.00000000       0.00000000       0.00000000       0.00000000       0.27262428
Eu       0.00000000       0.00000000       4.58909091       0.00000000       0.00000000      -0.27262428
2
Properties=species:S:1:pos:R:3:forces:R:3 energy=-17.328593753072237 pbc="F F F"
Eu       0.00000000       0.00000000       0.00000000       0.00000000       0.00000000       0.27376717
Eu       0.00000000       0.00000000       4.64787879       0.00000000       0.00000000      -0.27376717
2
Properties=species:S:1:pos:R:3:forces:R:3 energy=-17.31258518977394 pbc="F F F"
Eu       0.00000000       0.00000000       0.00000000       0.00000000       0.00000000       0.27048260
Eu       0.00000000       0.00000000       4.70666667       0.00000000       0.00000000      -0.27048260
2
Properties=species:S:1:pos:R:3:forces:R:3 energy=-17.29678963540142 pbc="F F F"
Eu       0.00000000       0.00000000       0.00000000       0.00000000       0.00000000       0.26722795
Eu       0.00000000       0.00000000       4.76545455       0.00000000       0.00000000      -0.26722795
2
Properties=species:S:1:pos:R:3:forces:R:3 energy=-17.281096165638996 pbc="F F F"
Eu       0.00000000       0.00000000       0.00000000       0.00000000       0.00000000       0.26741043
Eu       0.00000000       0.00000000       4.82424242       0.00000000       0.00000000      -0.26741043
2
Properties=species:S:1:pos:R:3:forces:R:3 energy=-17.26525510122975 pbc="F F F"
Eu       0.00000000       0.00000000       0.00000000       0.00000000       0.00000000       0.27231008
Eu       0.00000000       0.00000000       4.88303030       0.00000000       0.00000000      -0.27231008
2
Properties=species:S:1:pos:R:3:forces:R:3 energy=-17.249013740175048 pbc="F F F"
Eu       0.00000000       0.00000000       0.00000000       0.00000000       0.00000000       0.28054050
Eu       0.00000000       0.00000000       4.94181818       0.00000000       0.00000000      -0.28054050
2
Properties=species:S:1:pos:R:3:forces:R:3 energy=-17.232270409478666 pbc="F F F"
Eu       0.00000000       0.00000000       0.00000000       0.00000000       0.00000000       0.28876609
Eu       0.00000000       0.00000000       5.00060606       0.00000000       0.00000000      -0.28876609
2
Properties=species:S:1:pos:R:3:forces:R:3 energy=-17.215111065902573 pbc="F F F"
Eu       0.00000000       0.00000000       0.00000000       0.00000000       0.00000000       0.29467270
Eu       0.00000000       0.00000000       5.05939394       0.00000000       0.00000000      -0.29467270
2
Properties=species:S:1:pos:R:3:forces:R:3 energy=-17.197607167696987 pbc="F F F"
Eu       0.00000000       0.00000000       0.00000000       0.00000000       0.00000000       0.30181682
Eu       0.00000000       0.00000000       5.11818182       0.00000000       0.00000000      -0.30181682
2
Properties=species:S:1:pos:R:3:forces:R:3 energy=-17.179370920244132 pbc="F F F"
Eu       0.00000000       0.00000000       0.00000000       0.00000000       0.00000000       0.32192087
Eu       0.00000000       0.00000000       5.17696970       0.00000000       0.00000000      -0.32192087
2
Properties=species:S:1:pos:R:3:forces:R:3 energy=-17.159278875233255 pbc="F F F"
Eu       0.00000000       0.00000000       0.00000000       0.00000000       0.00000000       0.36572516
Eu       0.00000000       0.00000000       5.23575758       0.00000000       0.00000000      -0.36572516
2
Properties=species:S:1:pos:R:3:forces:R:3 energy=-17.13607638277917 pbc="F F F"
Eu       0.00000000       0.00000000       0.00000000       0.00000000       0.00000000       0.42362833
Eu       0.00000000       0.00000000       5.29454545       0.00000000       0.00000000      -0.42362833
2
Properties=species:S:1:pos:R:3:forces:R:3 energy=-17.109840591180063 pbc="F F F"
Eu       0.00000000       0.00000000       0.00000000       0.00000000       0.00000000       0.46284124
Eu       0.00000000       0.00000000       5.35333333       0.00000000       0.00000000      -0.46284124
2
Properties=species:S:1:pos:R:3:forces:R:3 energy=-17.08252008719643 pbc="F F F"
Eu       0.00000000       0.00000000       0.00000000       0.00000000       0.00000000       0.45964706
Eu       0.00000000       0.00000000       5.41212121       0.00000000       0.00000000      -0.45964706
2
Properties=species:S:1:pos:R:3:forces:R:3 energy=-17.056303929236297 pbc="F F F"
Eu       0.00000000       0.00000000       0.00000000       0.00000000       0.00000000       0.43182549
Eu       0.00000000       0.00000000       5.47090909       0.00000000       0.00000000      -0.43182549
2
Properties=species:S:1:pos:R:3:forces:R:3 energy=-17.03120509365829 pbc="F F F"
Eu       0.00000000       0.00000000       0.00000000       0.00000000       0.00000000       0.43128866
Eu       0.00000000       0.00000000       5.52969697       0.00000000       0.00000000      -0.43128866
2
Properties=species:S:1:pos:R:3:forces:R:3 energy=-17.004175338293095 pbc="F F F"
Eu       0.00000000       0.00000000       0.00000000       0.00000000       0.00000000       0.50103009
Eu       0.00000000       0.00000000       5.58848485       0.00000000       0.00000000      -0.50103009
2
Properties=species:S:1:pos:R:3:forces:R:3 energy=-16.97124897994336 pbc="F F F"
Eu       0.00000000       0.00000000       0.00000000       0.00000000       0.00000000       0.62253058
Eu       0.00000000       0.00000000       5.64727273       0.00000000       0.00000000      -0.62253058
2
Properties=species:S:1:pos:R:3:forces:R:3 energy=-16.93169306326118 pbc="F F F"
Eu       0.00000000       0.00000000       0.00000000       0.00000000       0.00000000       0.70768744
Eu       0.00000000       0.00000000       5.70606061       0.00000000       0.00000000      -0.70768744
2
Properties=species:S:1:pos:R:3:forces:R:3 energy=-16.890435491585347 pbc="F F F"
Eu       0.00000000       0.00000000       0.00000000       0.00000000       0.00000000       0.66910249
Eu       0.00000000       0.00000000       5.76484848       0.00000000       0.00000000      -0.66910249
2
Properties=species:S:1:pos:R:3:forces:R:3 energy=-16.85558543570487 pbc="F F F"
Eu       0.00000000       0.00000000       0.00000000       0.00000000       0.00000000       0.50043857
Eu       0.00000000       0.00000000       5.82363636       0.00000000       0.00000000      -0.50043857
2
Properties=species:S:1:pos:R:3:forces:R:3 energy=-16.832724347961317 pbc="F F F"
Eu       0.00000000       0.00000000       0.00000000       0.00000000       0.00000000       0.28007936
Eu       0.00000000       0.00000000       5.88242424       0.00000000       0.00000000      -0.28007936
2
Properties=species:S:1:pos:R:3:forces:R:3 energy=-16.821772365843135 pbc="F F F"
Eu       0.00000000       0.00000000       0.00000000       0.00000000       0.00000000       0.10506494
Eu       0.00000000       0.00000000       5.94121212       0.00000000       0.00000000      -0.10506494
2
Properties=species:S:1:pos:R:3:forces:R:3 energy=-16.81818012611282 pbc="F F F"
Eu       0.00000000       0.00000000       0.00000000       0.00000000       0.00000000       0.03898740
Eu       0.00000000       0.00000000       6.00000000       0.00000000       0.00000000      -0.03898740
