2
Properties=species:S:1:pos:R:3:forces:R:3 energy=4387.504690794615 pbc="F F F"
Ga       0.00000000       0.00000000       0.00000000       0.00000000       0.00000000  -69311.60156250
Ga       0.00000000       0.00000000       0.18000000       0.00000000       0.00000000   69311.60156250
2
Properties=species:S:1:pos:R:3:forces:R:3 energy=1879.2599398180532 pbc="F F F"
Ga       0.00000000       0.00000000       0.00000000       0.00000000       0.00000000  -24916.36328125
Ga       0.00000000       0.00000000       0.23878788       0.00000000       0.00000000   24916.36328125
2
Properties=species:S:1:pos:R:3:forces:R:3 energy=906.9805819142325 pbc="F F F"
Ga       0.00000000       0.00000000       0.00000000       0.00000000       0.00000000  -10545.96191406
Ga       0.00000000       0.00000000       0.29757576       0.00000000       0.00000000   10545.96191406
2
Properties=species:S:1:pos:R:3:forces:R:3 energy=475.0327669728263 pbc="F F F"
Ga       0.00000000       0.00000000       0.00000000       0.00000000       0.00000000   -4948.91015625
Ga       0.00000000       0.00000000       0.35636364       0.00000000       0.00000000    4948.91015625
2
Properties=species:S:1:pos:R:3:forces:R:3 energy=265.7031771354119 pbc="F F F"
Ga       0.00000000       0.00000000       0.00000000       0.00000000       0.00000000   -2485.97802734
Ga       0.00000000       0.00000000       0.41515152       0.00000000       0.00000000    2485.97802734
2
Properties=species:S:1:pos:R:3:forces:R:3 energy=158.18959682264978 pbc="F F F"
Ga       0.00000000       0.00000000       0.00000000       0.00000000       0.00000000   -1308.65625000
Ga       0.00000000       0.00000000       0.47393939       0.00000000       0.00000000    1308.65625000
2
Properties=species:S:1:pos:R:3:forces:R:3 energy=100.66741819492219 pbc="F F F"
Ga       0.00000000       0.00000000       0.00000000       0.00000000       0.00000000    -713.32379150
Ga       0.00000000       0.00000000       0.53272727       0.00000000       0.00000000     713.32379150
2
Properties=species:S:1:pos:R:3:forces:R:3 energy=68.86299776174465 pbc="F F F"
Ga       0.00000000       0.00000000       0.00000000       0.00000000       0.00000000    -401.09323120
Ga       0.00000000       0.00000000       0.59151515       0.00000000       0.00000000     401.09323120
2
Properties=species:S:1:pos:R:3:forces:R:3 energy=50.78390389199563 pbc="F F F"
Ga       0.00000000       0.00000000       0.00000000       0.00000000       0.00000000    -230.29489136
Ga       0.00000000       0.00000000       0.65030303       0.00000000       0.00000000     230.29489136
2
Properties=species:S:1:pos:R:3:forces:R:3 energy=40.35747043013352 pbc="F F F"
Ga       0.00000000       0.00000000       0.00000000       0.00000000       0.00000000    -133.53402710
Ga       0.00000000       0.00000000       0.70909091       0.00000000       0.00000000     133.53402710
2
Properties=species:S:1:pos:R:3:forces:R:3 energy=34.24792391447638 pbc="F F F"
Ga       0.00000000       0.00000000       0.00000000       0.00000000       0.00000000     -79.81818390
Ga       0.00000000       0.00000000       0.76787879       0.00000000       0.00000000      79.81818390
2
Properties=species:S:1:pos:R:3:forces:R:3 energy=30.473309805285307 pbc="F F F"
Ga       0.00000000       0.00000000       0.00000000       0.00000000       0.00000000     -51.72144699
Ga       0.00000000       0.00000000       0.82666667       0.00000000       0.00000000      51.72144699
2
Properties=species:S:1:pos:R:3:forces:R:3 energy=27.907041198001263 pbc="F F F"
Ga       0.00000000       0.00000000       0.00000000       0.00000000       0.00000000     -37.04518509
Ga       0.00000000       0.00000000       0.88545455       0.00000000       0.00000000      37.04518509
2
Properties=species:S:1:pos:R:3:forces:R:3 energy=26.00677117946023 pbc="F F F"
Ga       0.00000000       0.00000000       0.00000000       0.00000000       0.00000000     -28.17672920
Ga       0.00000000       0.00000000       0.94424242       0.00000000       0.00000000      28.17672920
2
Properties=species:S:1:pos:R:3:forces:R:3 energy=24.535170307811676 pbc="F F F"
Ga       0.00000000       0.00000000       0.00000000       0.00000000       0.00000000     -22.56206894
Ga       0.00000000       0.00000000       1.00303030       0.00000000       0.00000000      22.56206894
2
Properties=species:S:1:pos:R:3:forces:R:3 energy=23.226060489965942 pbc="F F F"
Ga       0.00000000       0.00000000       0.00000000       0.00000000       0.00000000     -23.39852715
Ga       0.00000000       0.00000000       1.06181818       0.00000000       0.00000000      23.39852715
2
Properties=species:S:1:pos:R:3:forces:R:3 energy=21.639128450046076 pbc="F F F"
Ga       0.00000000       0.00000000       0.00000000       0.00000000       0.00000000     -31.23571396
Ga       0.00000000       0.00000000       1.12060606       0.00000000       0.00000000      31.23571396
2
Properties=species:S:1:pos:R:3:forces:R:3 energy=19.564396147770825 pbc="F F F"
Ga       0.00000000       0.00000000       0.00000000       0.00000000       0.00000000     -38.70884323
Ga       0.00000000       0.00000000       1.17939394       0.00000000       0.00000000      38.70884323
2
Properties=species:S:1:pos:R:3:forces:R:3 energy=17.18288250435274 pbc="F F F"
Ga       0.00000000       0.00000000       0.00000000       0.00000000       0.00000000     -41.52112961
Ga       0.00000000       0.00000000       1.23818182       0.00000000       0.00000000      41.52112961
2
Properties=species:S:1:pos:R:3:forces:R:3 energy=14.757132234113199 pbc="F F F"
Ga       0.00000000       0.00000000       0.00000000       0.00000000       0.00000000     -40.55377197
Ga       0.00000000       0.00000000       1.29696970       0.00000000       0.00000000      40.55377197
2
Properties=species:S:1:pos:R:3:forces:R:3 energy=12.446994624299561 pbc="F F F"
Ga       0.00000000       0.00000000       0.00000000       0.00000000       0.00000000     -37.91389465
Ga       0.00000000       0.00000000       1.35575758       0.00000000       0.00000000      37.91389465
2
Properties=species:S:1:pos:R:3:forces:R:3 energy=10.303475165089072 pbc="F F F"
Ga       0.00000000       0.00000000       0.00000000       0.00000000       0.00000000     -35.02243042
Ga       0.00000000       0.00000000       1.41454545       0.00000000       0.00000000      35.02243042
2
Properties=species:S:1:pos:R:3:forces:R:3 energy=8.327794721165656 pbc="F F F"
Ga       0.00000000       0.00000000       0.00000000       0.00000000       0.00000000     -32.18844986
Ga       0.00000000       0.00000000       1.47333333       0.00000000       0.00000000      32.18844986
2
Properties=species:S:1:pos:R:3:forces:R:3 energy=6.521077362437951 pbc="F F F"
Ga       0.00000000       0.00000000       0.00000000       0.00000000       0.00000000     -29.24633408
Ga       0.00000000       0.00000000       1.53212121       0.00000000       0.00000000      29.24633408
2
Properties=species:S:1:pos:R:3:forces:R:3 energy=4.893627243623432 pbc="F F F"
Ga       0.00000000       0.00000000       0.00000000       0.00000000       0.00000000     -26.07757759
Ga       0.00000000       0.00000000       1.59090909       0.00000000       0.00000000      26.07757759
2
Properties=species:S:1:pos:R:3:forces:R:3 energy=3.4599357088891303 pbc="F F F"
Ga       0.00000000       0.00000000       0.00000000       0.00000000       0.00000000     -22.66298485
Ga       0.00000000       0.00000000       1.64969697       0.00000000       0.00000000      22.66298485
2
Properties=species:S:1:pos:R:3:forces:R:3 energy=2.230963568404519 pbc="F F F"
Ga       0.00000000       0.00000000       0.00000000       0.00000000       0.00000000     -19.15340614
Ga       0.00000000       0.00000000       1.70848485       0.00000000       0.00000000      19.15340614
2
Properties=species:S:1:pos:R:3:forces:R:3 energy=1.2045301574821492 pbc="F F F"
Ga       0.00000000       0.00000000       0.00000000       0.00000000       0.00000000     -15.81561661
Ga       0.00000000       0.00000000       1.76727273       0.00000000       0.00000000      15.81561661
2
Properties=species:S:1:pos:R:3:forces:R:3 energy=0.3641456594117442 pbc="F F F"
Ga       0.00000000       0.00000000       0.00000000       0.00000000       0.00000000     -12.84411907
Ga       0.00000000       0.00000000       1.82606061       0.00000000       0.00000000      12.84411907
2
Properties=species:S:1:pos:R:3:forces:R:3 energy=-0.31392214568047494 pbc="F F F"
Ga       0.00000000       0.00000000       0.00000000       0.00000000       0.00000000     -10.29335976
Ga       0.00000000       0.00000000       1.88484848       0.00000000       0.00000000      10.29335976
2
Properties=species:S:1:pos:R:3:forces:R:3 energy=-0.8538156932567185 pbc="F F F"
Ga       0.00000000       0.00000000       0.00000000       0.00000000       0.00000000      -8.13566303
Ga       0.00000000       0.00000000       1.94363636       0.00000000       0.00000000       8.13566303
2
Properties=species:S:1:pos:R:3:forces:R:3 energy=-1.2772753769373253 pbc="F F F"
Ga       0.00000000       0.00000000       0.00000000       0.00000000       0.00000000      -6.32507944
Ga       0.00000000       0.00000000       2.00242424       0.00000000       0.00000000       6.32507944
2
Properties=species:S:1:pos:R:3:forces:R:3 energy=-1.6035286850294335 pbc="F F F"
Ga       0.00000000       0.00000000       0.00000000       0.00000000       0.00000000      -4.82293081
Ga       0.00000000       0.00000000       2.06121212       0.00000000       0.00000000       4.82293081
2
Properties=species:S:1:pos:R:3:forces:R:3 energy=-1.8497575547949947 pbc="F F F"
Ga       0.00000000       0.00000000       0.00000000       0.00000000       0.00000000      -3.59750962
Ga       0.00000000       0.00000000       2.12000000       0.00000000       0.00000000       3.59750962
2
Properties=species:S:1:pos:R:3:forces:R:3 energy=-2.0313402625224914 pbc="F F F"
Ga       0.00000000       0.00000000       0.00000000       0.00000000       0.00000000      -2.61858368
Ga       0.00000000       0.00000000       2.17878788       0.00000000       0.00000000       2.61858368
2
Properties=species:S:1:pos:R:3:forces:R:3 energy=-2.161852055003402 pbc="F F F"
Ga       0.00000000       0.00000000       0.00000000       0.00000000       0.00000000      -1.85456991
Ga       0.00000000       0.00000000       2.23757576       0.00000000       0.00000000       1.85456991
2
Properties=species:S:1:pos:R:3:forces:R:3 energy=-2.252944561584284 pbc="F F F"
Ga       0.00000000       0.00000000       0.00000000       0.00000000       0.00000000      -1.27173305
Ga       0.00000000       0.00000000       2.29636364       0.00000000       0.00000000       1.27173305
2
Properties=species:S:1:pos:R:3:forces:R:3 energy=-2.31422490444383 pbc="F F F"
Ga       0.00000000       0.00000000       0.00000000       0.00000000       0.00000000      -0.83422375
Ga       0.00000000       0.00000000       2.35515152       0.00000000       0.00000000       0.83422375
2
Properties=species:S:1:pos:R:3:forces:R:3 energy=-2.3531634516095625 pbc="F F F"
Ga       0.00000000       0.00000000       0.00000000       0.00000000       0.00000000      -0.50571746
Ga       0.00000000       0.00000000       2.41393939       0.00000000       0.00000000       0.50571746
2
Properties=species:S:1:pos:R:3:forces:R:3 energy=-2.375167136670515 pbc="F F F"
Ga       0.00000000       0.00000000       0.00000000       0.00000000       0.00000000      -0.25309321
Ga       0.00000000       0.00000000       2.47272727       0.00000000       0.00000000       0.25309321
2
Properties=species:S:1:pos:R:3:forces:R:3 energy=-2.383895216170737 pbc="F F F"
Ga       0.00000000       0.00000000       0.00000000       0.00000000       0.00000000      -0.05052450
Ga       0.00000000       0.00000000       2.53151515       0.00000000       0.00000000       0.05052450
2
Properties=species:S:1:pos:R:3:forces:R:3 energy=-2.381757924899273 pbc="F F F"
Ga       0.00000000       0.00000000       0.00000000       0.00000000       0.00000000       0.11858014
Ga       0.00000000       0.00000000       2.59030303       0.00000000       0.00000000      -0.11858014
2
Properties=species:S:1:pos:R:3:forces:R:3 energy=-2.370434436429706 pbc="F F F"
Ga       0.00000000       0.00000000       0.00000000       0.00000000       0.00000000       0.26294428
Ga       0.00000000       0.00000000       2.64909091       0.00000000       0.00000000      -0.26294428
2
Properties=species:S:1:pos:R:3:forces:R:3 energy=-2.351250140219517 pbc="F F F"
Ga       0.00000000       0.00000000       0.00000000       0.00000000       0.00000000       0.38645458
Ga       0.00000000       0.00000000       2.70787879       0.00000000       0.00000000      -0.38645458
2
Properties=species:S:1:pos:R:3:forces:R:3 energy=-2.3253668670315593 pbc="F F F"
Ga       0.00000000       0.00000000       0.00000000       0.00000000       0.00000000       0.49108580
Ga       0.00000000       0.00000000       2.76666667       0.00000000       0.00000000      -0.49108580
2
Properties=species:S:1:pos:R:3:forces:R:3 energy=-2.293843088362814 pbc="F F F"
Ga       0.00000000       0.00000000       0.00000000       0.00000000       0.00000000       0.57873183
Ga       0.00000000       0.00000000       2.82545455       0.00000000       0.00000000      -0.57873183
2
Properties=species:S:1:pos:R:3:forces:R:3 energy=-2.2576009741055176 pbc="F F F"
Ga       0.00000000       0.00000000       0.00000000       0.00000000       0.00000000       0.65222836
Ga       0.00000000       0.00000000       2.88424242       0.00000000       0.00000000      -0.65222836
2
Properties=species:S:1:pos:R:3:forces:R:3 energy=-2.2173501055372404 pbc="F F F"
Ga       0.00000000       0.00000000       0.00000000       0.00000000       0.00000000       0.71590894
Ga       0.00000000       0.00000000       2.94303030       0.00000000       0.00000000      -0.71590894
2
Properties=species:S:1:pos:R:3:forces:R:3 energy=-2.173523572537703 pbc="F F F"
Ga       0.00000000       0.00000000       0.00000000       0.00000000       0.00000000       0.77455258
Ga       0.00000000       0.00000000       3.00181818       0.00000000       0.00000000      -0.77455258
2
Properties=species:S:1:pos:R:3:forces:R:3 energy=-2.1263377697450268 pbc="F F F"
Ga       0.00000000       0.00000000       0.00000000       0.00000000       0.00000000       0.83017969
Ga       0.00000000       0.00000000       3.06060606       0.00000000       0.00000000      -0.83017969
2
Properties=species:S:1:pos:R:3:forces:R:3 energy=-2.076006511500585 pbc="F F F"
Ga       0.00000000       0.00000000       0.00000000       0.00000000       0.00000000       0.88108921
Ga       0.00000000       0.00000000       3.11939394       0.00000000       0.00000000      -0.88108921
2
Properties=species:S:1:pos:R:3:forces:R:3 energy=-2.022888273428918 pbc="F F F"
Ga       0.00000000       0.00000000       0.00000000       0.00000000       0.00000000       0.92459977
Ga       0.00000000       0.00000000       3.17818182       0.00000000       0.00000000      -0.92459977
2
Properties=species:S:1:pos:R:3:forces:R:3 energy=-1.967477569508011 pbc="F F F"
Ga       0.00000000       0.00000000       0.00000000       0.00000000       0.00000000       0.95888537
Ga       0.00000000       0.00000000       3.23696970       0.00000000       0.00000000      -0.95888537
2
Properties=species:S:1:pos:R:3:forces:R:3 energy=-1.9103476866272529 pbc="F F F"
Ga       0.00000000       0.00000000       0.00000000       0.00000000       0.00000000       0.98296416
Ga       0.00000000       0.00000000       3.29575758       0.00000000       0.00000000      -0.98296416
2
Properties=species:S:1:pos:R:3:forces:R:3 energy=-1.8521119502200571 pbc="F F F"
Ga       0.00000000       0.00000000       0.00000000       0.00000000       0.00000000       0.99646795
Ga       0.00000000       0.00000000       3.35454545       0.00000000       0.00000000      -0.99646795
2
Properties=species:S:1:pos:R:3:forces:R:3 energy=-1.793390306304782 pbc="F F F"
Ga       0.00000000       0.00000000       0.00000000       0.00000000       0.00000000       0.99959052
Ga       0.00000000       0.00000000       3.41333333       0.00000000       0.00000000      -0.99959052
2
Properties=species:S:1:pos:R:3:forces:R:3 energy=-1.7347742343085708 pbc="F F F"
Ga       0.00000000       0.00000000       0.00000000       0.00000000       0.00000000       0.99303442
Ga       0.00000000       0.00000000       3.47212121       0.00000000       0.00000000      -0.99303442
2
Properties=species:S:1:pos:R:3:forces:R:3 energy=-1.6768029936050968 pbc="F F F"
Ga       0.00000000       0.00000000       0.00000000       0.00000000       0.00000000       0.97786379
Ga       0.00000000       0.00000000       3.53090909       0.00000000       0.00000000      -0.97786379
2
Properties=species:S:1:pos:R:3:forces:R:3 energy=-1.619945780823398 pbc="F F F"
Ga       0.00000000       0.00000000       0.00000000       0.00000000       0.00000000       0.95531160
Ga       0.00000000       0.00000000       3.58969697       0.00000000       0.00000000      -0.95531160
2
Properties=species:S:1:pos:R:3:forces:R:3 energy=-1.5646009612513816 pbc="F F F"
Ga       0.00000000       0.00000000       0.00000000       0.00000000       0.00000000       0.92663592
Ga       0.00000000       0.00000000       3.64848485       0.00000000       0.00000000      -0.92663592
2
Properties=species:S:1:pos:R:3:forces:R:3 energy=-1.5110932658417768 pbc="F F F"
Ga       0.00000000       0.00000000       0.00000000       0.00000000       0.00000000       0.89302647
Ga       0.00000000       0.00000000       3.70727273       0.00000000       0.00000000      -0.89302647
2
Properties=species:S:1:pos:R:3:forces:R:3 energy=-1.4596776137490297 pbc="F F F"
Ga       0.00000000       0.00000000       0.00000000       0.00000000       0.00000000       0.85558426
Ga       0.00000000       0.00000000       3.76606061       0.00000000       0.00000000      -0.85558426
2
Properties=species:S:1:pos:R:3:forces:R:3 energy=-1.41055209180674 pbc="F F F"
Ga       0.00000000       0.00000000       0.00000000       0.00000000       0.00000000       0.81533509
Ga       0.00000000       0.00000000       3.82484848       0.00000000       0.00000000      -0.81533509
2
Properties=species:S:1:pos:R:3:forces:R:3 energy=-1.3638504645173042 pbc="F F F"
Ga       0.00000000       0.00000000       0.00000000       0.00000000       0.00000000       0.77324247
Ga       0.00000000       0.00000000       3.88363636       0.00000000       0.00000000      -0.77324247
2
Properties=species:S:1:pos:R:3:forces:R:3 energy=-1.3196554276258932 pbc="F F F"
Ga       0.00000000       0.00000000       0.00000000       0.00000000       0.00000000       0.73021513
Ga       0.00000000       0.00000000       3.94242424       0.00000000       0.00000000      -0.73021513
2
Properties=species:S:1:pos:R:3:forces:R:3 energy=-1.2779975320690238 pbc="F F F"
Ga       0.00000000       0.00000000       0.00000000       0.00000000       0.00000000       0.68707532
Ga       0.00000000       0.00000000       4.00121212       0.00000000       0.00000000      -0.68707532
2
Properties=species:S:1:pos:R:3:forces:R:3 energy=-1.2388607848112976 pbc="F F F"
Ga       0.00000000       0.00000000       0.00000000       0.00000000       0.00000000       0.64452273
Ga       0.00000000       0.00000000       4.06000000       0.00000000       0.00000000      -0.64452273
2
Properties=species:S:1:pos:R:3:forces:R:3 energy=-1.2021950371080479 pbc="F F F"
Ga       0.00000000       0.00000000       0.00000000       0.00000000       0.00000000       0.60309285
Ga       0.00000000       0.00000000       4.11878788       0.00000000       0.00000000      -0.60309285
2
Properties=species:S:1:pos:R:3:forces:R:3 energy=-1.1679222435770173 pbc="F F F"
Ga       0.00000000       0.00000000       0.00000000       0.00000000       0.00000000       0.56313181
Ga       0.00000000       0.00000000       4.17757576       0.00000000       0.00000000      -0.56313181
2
Properties=species:S:1:pos:R:3:forces:R:3 energy=-1.1359510710879952 pbc="F F F"
Ga       0.00000000       0.00000000       0.00000000       0.00000000       0.00000000       0.52482861
Ga       0.00000000       0.00000000       4.23636364       0.00000000       0.00000000      -0.52482861
2
Properties=species:S:1:pos:R:3:forces:R:3 energy=-1.106181280996133 pbc="F F F"
Ga       0.00000000       0.00000000       0.00000000       0.00000000       0.00000000       0.48824242
Ga       0.00000000       0.00000000       4.29515152       0.00000000       0.00000000      -0.48824242
2
Properties=species:S:1:pos:R:3:forces:R:3 energy=-1.0785120484496344 pbc="F F F"
Ga       0.00000000       0.00000000       0.00000000       0.00000000       0.00000000       0.45339304
Ga       0.00000000       0.00000000       4.35393939       0.00000000       0.00000000      -0.45339304
2
Properties=species:S:1:pos:R:3:forces:R:3 energy=-1.0528387520744527 pbc="F F F"
Ga       0.00000000       0.00000000       0.00000000       0.00000000       0.00000000       0.42033467
Ga       0.00000000       0.00000000       4.41272727       0.00000000       0.00000000      -0.42033467
2
Properties=species:S:1:pos:R:3:forces:R:3 energy=-1.0290520234677958 pbc="F F F"
Ga       0.00000000       0.00000000       0.00000000       0.00000000       0.00000000       0.38924345
Ga       0.00000000       0.00000000       4.47151515       0.00000000       0.00000000      -0.38924345
2
Properties=species:S:1:pos:R:3:forces:R:3 energy=-1.0070275625554086 pbc="F F F"
Ga       0.00000000       0.00000000       0.00000000       0.00000000       0.00000000       0.36045775
Ga       0.00000000       0.00000000       4.53030303       0.00000000       0.00000000      -0.36045775
2
Properties=species:S:1:pos:R:3:forces:R:3 energy=-0.9866164467930755 pbc="F F F"
Ga       0.00000000       0.00000000       0.00000000       0.00000000       0.00000000       0.33446270
Ga       0.00000000       0.00000000       4.58909091       0.00000000       0.00000000      -0.33446270
2
Properties=species:S:1:pos:R:3:forces:R:3 energy=-0.967637604558292 pbc="F F F"
Ga       0.00000000       0.00000000       0.00000000       0.00000000       0.00000000       0.31182146
Ga       0.00000000       0.00000000       4.64787879       0.00000000       0.00000000      -0.31182146
2
Properties=species:S:1:pos:R:3:forces:R:3 energy=-0.9498782844838264 pbc="F F F"
Ga       0.00000000       0.00000000       0.00000000       0.00000000       0.00000000       0.29301375
Ga       0.00000000       0.00000000       4.70666667       0.00000000       0.00000000      -0.29301375
2
Properties=species:S:1:pos:R:3:forces:R:3 energy=-0.9331072871048838 pbc="F F F"
Ga       0.00000000       0.00000000       0.00000000       0.00000000       0.00000000       0.27821836
Ga       0.00000000       0.00000000       4.76545455       0.00000000       0.00000000      -0.27821836
2
Properties=species:S:1:pos:R:3:forces:R:3 energy=-0.9170942134075706 pbc="F F F"
Ga       0.00000000       0.00000000       0.00000000       0.00000000       0.00000000       0.26705897
Ga       0.00000000       0.00000000       4.82424242       0.00000000       0.00000000      -0.26705897
2
Properties=species:S:1:pos:R:3:forces:R:3 energy=-0.9016592030290607 pbc="F F F"
Ga       0.00000000       0.00000000       0.00000000       0.00000000       0.00000000       0.25837713
Ga       0.00000000       0.00000000       4.88303030       0.00000000       0.00000000      -0.25837713
2
Properties=species:S:1:pos:R:3:forces:R:3 energy=-0.886706440403473 pbc="F F F"
Ga       0.00000000       0.00000000       0.00000000       0.00000000       0.00000000       0.25015697
Ga       0.00000000       0.00000000       4.94181818       0.00000000       0.00000000      -0.25015697
2
Properties=species:S:1:pos:R:3:forces:R:3 energy=-0.8722873937060674 pbc="F F F"
Ga       0.00000000       0.00000000       0.00000000       0.00000000       0.00000000       0.23984532
Ga       0.00000000       0.00000000       5.00060606       0.00000000       0.00000000      -0.23984532
2
Properties=species:S:1:pos:R:3:forces:R:3 energy=-0.8585854542779148 pbc="F F F"
Ga       0.00000000       0.00000000       0.00000000       0.00000000       0.00000000       0.22557333
Ga       0.00000000       0.00000000       5.05939394       0.00000000       0.00000000      -0.22557333
2
Properties=species:S:1:pos:R:3:forces:R:3 energy=-0.8458214690155957 pbc="F F F"
Ga       0.00000000       0.00000000       0.00000000       0.00000000       0.00000000       0.20865257
Ga       0.00000000       0.00000000       5.11818182       0.00000000       0.00000000      -0.20865257
2
Properties=species:S:1:pos:R:3:forces:R:3 energy=-0.8339687721484409 pbc="F F F"
Ga       0.00000000       0.00000000       0.00000000       0.00000000       0.00000000       0.19624396
Ga       0.00000000       0.00000000       5.17696970       0.00000000       0.00000000      -0.19624396
2
Properties=species:S:1:pos:R:3:forces:R:3 energy=-0.8224415711557099 pbc="F F F"
Ga       0.00000000       0.00000000       0.00000000       0.00000000       0.00000000       0.19922307
Ga       0.00000000       0.00000000       5.23575758       0.00000000       0.00000000      -0.19922307
2
Properties=species:S:1:pos:R:3:forces:R:3 energy=-0.8101776447514076 pbc="F F F"
Ga       0.00000000       0.00000000       0.00000000       0.00000000       0.00000000       0.22020134
Ga       0.00000000       0.00000000       5.29454545       0.00000000       0.00000000      -0.22020134
2
Properties=species:S:1:pos:R:3:forces:R:3 energy=-0.7965153836345062 pbc="F F F"
Ga       0.00000000       0.00000000       0.00000000       0.00000000       0.00000000       0.24269901
Ga       0.00000000       0.00000000       5.35333333       0.00000000       0.00000000      -0.24269901
2
Properties=species:S:1:pos:R:3:forces:R:3 energy=-0.7820639006772881 pbc="F F F"
Ga       0.00000000       0.00000000       0.00000000       0.00000000       0.00000000       0.24456848
Ga       0.00000000       0.00000000       5.41212121       0.00000000       0.00000000      -0.24456848
2
Properties=species:S:1:pos:R:3:forces:R:3 energy=-0.7681946882526336 pbc="F F F"
Ga       0.00000000       0.00000000       0.00000000       0.00000000       0.00000000       0.22520494
Ga       0.00000000       0.00000000       5.47090909       0.00000000       0.00000000      -0.22520494
2
Properties=species:S:1:pos:R:3:forces:R:3 energy=-0.7555231388072543 pbc="F F F"
Ga       0.00000000       0.00000000       0.00000000       0.00000000       0.00000000       0.20898309
Ga       0.00000000       0.00000000       5.52969697       0.00000000       0.00000000      -0.20898309
2
Properties=species:S:1:pos:R:3:forces:R:3 energy=-0.743035595825157 pbc="F F F"
Ga       0.00000000       0.00000000       0.00000000       0.00000000       0.00000000       0.22174543
Ga       0.00000000       0.00000000       5.58848485       0.00000000       0.00000000      -0.22174543
2
Properties=species:S:1:pos:R:3:forces:R:3 energy=-0.7289125201065243 pbc="F F F"
Ga       0.00000000       0.00000000       0.00000000       0.00000000       0.00000000       0.26107156
Ga       0.00000000       0.00000000       5.64727273       0.00000000       0.00000000      -0.26107156
2
Properties=species:S:1:pos:R:3:forces:R:3 energy=-0.7125621198439828 pbc="F F F"
Ga       0.00000000       0.00000000       0.00000000       0.00000000       0.00000000       0.28911114
Ga       0.00000000       0.00000000       5.70606061       0.00000000       0.00000000      -0.28911114
2
Properties=species:S:1:pos:R:3:forces:R:3 energy=-0.6958878845754395 pbc="F F F"
Ga       0.00000000       0.00000000       0.00000000       0.00000000       0.00000000       0.26730508
Ga       0.00000000       0.00000000       5.76484848       0.00000000       0.00000000      -0.26730508
2
Properties=species:S:1:pos:R:3:forces:R:3 energy=-0.6821295401882684 pbc="F F F"
Ga       0.00000000       0.00000000       0.00000000       0.00000000       0.00000000       0.19477113
Ga       0.00000000       0.00000000       5.82363636       0.00000000       0.00000000      -0.19477113
2
Properties=species:S:1:pos:R:3:forces:R:3 energy=-0.6733784889064924 pbc="F F F"
Ga       0.00000000       0.00000000       0.00000000       0.00000000       0.00000000       0.10454305
Ga       0.00000000       0.00000000       5.88242424       0.00000000       0.00000000      -0.10454305
2
Properties=species:S:1:pos:R:3:forces:R:3 energy=-0.6694413249450053 pbc="F F F"
Ga       0.00000000       0.00000000       0.00000000       0.00000000       0.00000000       0.03453544
Ga       0.00000000       0.00000000       5.94121212       0.00000000       0.00000000      -0.03453544
2
Properties=species:S:1:pos:R:3:forces:R:3 energy=-0.668439160796699 pbc="F F F"
Ga       0.00000000       0.00000000       0.00000000       0.00000000       0.00000000       0.00820687
Ga       0.00000000       0.00000000       6.00000000       0.00000000       0.00000000      -0.00820687
