2
Properties=species:S:1:pos:R:3:forces:R:3 energy=20.22855794890054 pbc="F F F"
H        0.00000000       0.00000000       0.00000000       0.00000000       0.00000000    -180.35635376
H        0.00000000       0.00000000       0.18000000       0.00000000       0.00000000     180.35635376
2
Properties=species:S:1:pos:R:3:forces:R:3 energy=12.417566662065072 pbc="F F F"
H        0.00000000       0.00000000       0.00000000       0.00000000       0.00000000    -111.78077698
H        0.00000000       0.00000000       0.23878788       0.00000000       0.00000000     111.78077698
2
Properties=species:S:1:pos:R:3:forces:R:3 energy=6.534280186919763 pbc="F F F"
H        0.00000000       0.00000000       0.00000000       0.00000000       0.00000000     -85.71763611
H        0.00000000       0.00000000       0.29757576       0.00000000       0.00000000      85.71763611
2
Properties=species:S:1:pos:R:3:forces:R:3 energy=1.8495906679020564 pbc="F F F"
H        0.00000000       0.00000000       0.00000000       0.00000000       0.00000000     -72.51190948
H        0.00000000       0.00000000       0.35636364       0.00000000       0.00000000      72.51190948
2
Properties=species:S:1:pos:R:3:forces:R:3 energy=-1.6240904180245674 pbc="F F F"
H        0.00000000       0.00000000       0.00000000       0.00000000       0.00000000     -46.81792068
H        0.00000000       0.00000000       0.41515152       0.00000000       0.00000000      46.81792068
2
Properties=species:S:1:pos:R:3:forces:R:3 energy=-3.7987271261723463 pbc="F F F"
H        0.00000000       0.00000000       0.00000000       0.00000000       0.00000000     -28.76773834
H        0.00000000       0.00000000       0.47393939       0.00000000       0.00000000      28.76773834
2
Properties=species:S:1:pos:R:3:forces:R:3 energy=-5.13732871656316 pbc="F F F"
H        0.00000000       0.00000000       0.00000000       0.00000000       0.00000000     -17.37399864
H        0.00000000       0.00000000       0.53272727       0.00000000       0.00000000      17.37399864
2
Properties=species:S:1:pos:R:3:forces:R:3 energy=-5.907932137447273 pbc="F F F"
H        0.00000000       0.00000000       0.00000000       0.00000000       0.00000000      -9.39744186
H        0.00000000       0.00000000       0.59151515       0.00000000       0.00000000       9.39744186
2
Properties=species:S:1:pos:R:3:forces:R:3 energy=-6.30912551328568 pbc="F F F"
H        0.00000000       0.00000000       0.00000000       0.00000000       0.00000000      -4.67974091
H        0.00000000       0.00000000       0.65030303       0.00000000       0.00000000       4.67974091
2
Properties=species:S:1:pos:R:3:forces:R:3 energy=-6.488141172914375 pbc="F F F"
H        0.00000000       0.00000000       0.00000000       0.00000000       0.00000000      -1.61581385
H        0.00000000       0.00000000       0.70909091       0.00000000       0.00000000       1.61581385
2
Properties=species:S:1:pos:R:3:forces:R:3 energy=-6.516023353680556 pbc="F F F"
H        0.00000000       0.00000000       0.00000000       0.00000000       0.00000000       0.58595449
H        0.00000000       0.00000000       0.76787879       0.00000000       0.00000000      -0.58595449
2
Properties=species:S:1:pos:R:3:forces:R:3 energy=-6.425361348512953 pbc="F F F"
H        0.00000000       0.00000000       0.00000000       0.00000000       0.00000000       2.45064116
H        0.00000000       0.00000000       0.82666667       0.00000000       0.00000000      -2.45064116
2
Properties=species:S:1:pos:R:3:forces:R:3 energy=-6.23346340168383 pbc="F F F"
H        0.00000000       0.00000000       0.00000000       0.00000000       0.00000000       4.04271269
H        0.00000000       0.00000000       0.88545455       0.00000000       0.00000000      -4.04271269
2
Properties=species:S:1:pos:R:3:forces:R:3 energy=-5.9533503167283115 pbc="F F F"
H        0.00000000       0.00000000       0.00000000       0.00000000       0.00000000       5.45919037
H        0.00000000       0.00000000       0.94424242       0.00000000       0.00000000      -5.45919037
2
Properties=species:S:1:pos:R:3:forces:R:3 energy=-5.596120540464827 pbc="F F F"
H        0.00000000       0.00000000       0.00000000       0.00000000       0.00000000       6.63451052
H        0.00000000       0.00000000       1.00303030       0.00000000       0.00000000      -6.63451052
2
Properties=species:S:1:pos:R:3:forces:R:3 energy=-5.183211567813341 pbc="F F F"
H        0.00000000       0.00000000       0.00000000       0.00000000       0.00000000       7.31078100
H        0.00000000       0.00000000       1.06181818       0.00000000       0.00000000      -7.31078100
2
Properties=species:S:1:pos:R:3:forces:R:3 energy=-4.748698141450695 pbc="F F F"
H        0.00000000       0.00000000       0.00000000       0.00000000       0.00000000       7.37730265
H        0.00000000       0.00000000       1.12060606       0.00000000       0.00000000      -7.37730265
2
Properties=species:S:1:pos:R:3:forces:R:3 energy=-4.324798609103526 pbc="F F F"
H        0.00000000       0.00000000       0.00000000       0.00000000       0.00000000       6.98674250
H        0.00000000       0.00000000       1.17939394       0.00000000       0.00000000      -6.98674250
2
Properties=species:S:1:pos:R:3:forces:R:3 energy=-3.932039494899821 pbc="F F F"
H        0.00000000       0.00000000       0.00000000       0.00000000       0.00000000       6.34735203
H        0.00000000       0.00000000       1.23818182       0.00000000       0.00000000      -6.34735203
2
Properties=species:S:1:pos:R:3:forces:R:3 energy=-3.580740967908013 pbc="F F F"
H        0.00000000       0.00000000       0.00000000       0.00000000       0.00000000       5.59154749
H        0.00000000       0.00000000       1.29696970       0.00000000       0.00000000      -5.59154749
2
Properties=species:S:1:pos:R:3:forces:R:3 energy=-3.2755907506741413 pbc="F F F"
H        0.00000000       0.00000000       0.00000000       0.00000000       0.00000000       4.78487539
H        0.00000000       0.00000000       1.35575758       0.00000000       0.00000000      -4.78487539
2
Properties=species:S:1:pos:R:3:forces:R:3 energy=-3.0183146213719123 pbc="F F F"
H        0.00000000       0.00000000       0.00000000       0.00000000       0.00000000       3.96994638
H        0.00000000       0.00000000       1.41454545       0.00000000       0.00000000      -3.96994638
2
Properties=species:S:1:pos:R:3:forces:R:3 energy=-2.808184907886952 pbc="F F F"
H        0.00000000       0.00000000       0.00000000       0.00000000       0.00000000       3.18745327
H        0.00000000       0.00000000       1.47333333       0.00000000       0.00000000      -3.18745327
2
Properties=species:S:1:pos:R:3:forces:R:3 energy=-2.642172769140717 pbc="F F F"
H        0.00000000       0.00000000       0.00000000       0.00000000       0.00000000       2.47463155
H        0.00000000       0.00000000       1.53212121       0.00000000       0.00000000      -2.47463155
2
Properties=species:S:1:pos:R:3:forces:R:3 energy=-2.5153445212127776 pbc="F F F"
H        0.00000000       0.00000000       0.00000000       0.00000000       0.00000000       1.85736251
H        0.00000000       0.00000000       1.59090909       0.00000000       0.00000000      -1.85736251
2
Properties=species:S:1:pos:R:3:forces:R:3 energy=-2.4216937550078192 pbc="F F F"
H        0.00000000       0.00000000       0.00000000       0.00000000       0.00000000       1.34663415
H        0.00000000       0.00000000       1.64969697       0.00000000       0.00000000      -1.34663415
2
Properties=species:S:1:pos:R:3:forces:R:3 energy=-2.3549641342152503 pbc="F F F"
H        0.00000000       0.00000000       0.00000000       0.00000000       0.00000000       0.94022959
H        0.00000000       0.00000000       1.70848485       0.00000000       0.00000000      -0.94022959
2
Properties=species:S:1:pos:R:3:forces:R:3 energy=-2.3093107815149008 pbc="F F F"
H        0.00000000       0.00000000       0.00000000       0.00000000       0.00000000       0.62732345
H        0.00000000       0.00000000       1.76727273       0.00000000       0.00000000      -0.62732345
2
Properties=species:S:1:pos:R:3:forces:R:3 energy=-2.2796638946285923 pbc="F F F"
H        0.00000000       0.00000000       0.00000000       0.00000000       0.00000000       0.39308581
H        0.00000000       0.00000000       1.82606061       0.00000000       0.00000000      -0.39308581
2
Properties=species:S:1:pos:R:3:forces:R:3 energy=-2.2618557818451355 pbc="F F F"
H        0.00000000       0.00000000       0.00000000       0.00000000       0.00000000       0.22207169
H        0.00000000       0.00000000       1.88484848       0.00000000       0.00000000      -0.22207169
2
Properties=species:S:1:pos:R:3:forces:R:3 energy=-2.2525920941517232 pbc="F F F"
H        0.00000000       0.00000000       0.00000000       0.00000000       0.00000000       0.10022430
H        0.00000000       0.00000000       1.94363636       0.00000000       0.00000000      -0.10022430
2
Properties=species:S:1:pos:R:3:forces:R:3 energy=-2.249341383578829 pbc="F F F"
H        0.00000000       0.00000000       0.00000000       0.00000000       0.00000000       0.01573632
H        0.00000000       0.00000000       2.00242424       0.00000000       0.00000000      -0.01573632
2
Properties=species:S:1:pos:R:3:forces:R:3 energy=-2.2501959245627674 pbc="F F F"
H        0.00000000       0.00000000       0.00000000       0.00000000       0.00000000      -0.04080270
H        0.00000000       0.00000000       2.06121212       0.00000000       0.00000000       0.04080270
2
Properties=species:S:1:pos:R:3:forces:R:3 energy=-2.2537341480094626 pbc="F F F"
H        0.00000000       0.00000000       0.00000000       0.00000000       0.00000000      -0.07663753
H        0.00000000       0.00000000       2.12000000       0.00000000       0.00000000       0.07663753
2
Properties=species:S:1:pos:R:3:forces:R:3 energy=-2.2589086075289813 pbc="F F F"
H        0.00000000       0.00000000       0.00000000       0.00000000       0.00000000      -0.09724139
H        0.00000000       0.00000000       2.17878788       0.00000000       0.00000000       0.09724139
2
Properties=species:S:1:pos:R:3:forces:R:3 energy=-2.264949917734977 pbc="F F F"
H        0.00000000       0.00000000       0.00000000       0.00000000       0.00000000      -0.10671218
H        0.00000000       0.00000000       2.23757576       0.00000000       0.00000000       0.10671218
2
Properties=species:S:1:pos:R:3:forces:R:3 energy=-2.2712978754299726 pbc="F F F"
H        0.00000000       0.00000000       0.00000000       0.00000000       0.00000000      -0.10813218
H        0.00000000       0.00000000       2.29636364       0.00000000       0.00000000       0.10813218
2
Properties=species:S:1:pos:R:3:forces:R:3 energy=-2.2775518998231528 pbc="F F F"
H        0.00000000       0.00000000       0.00000000       0.00000000       0.00000000      -0.10384685
H        0.00000000       0.00000000       2.35515152       0.00000000       0.00000000       0.10384685
2
Properties=species:S:1:pos:R:3:forces:R:3 energy=-2.283432188120967 pbc="F F F"
H        0.00000000       0.00000000       0.00000000       0.00000000       0.00000000      -0.09565797
H        0.00000000       0.00000000       2.41393939       0.00000000       0.00000000       0.09565797
2
Properties=species:S:1:pos:R:3:forces:R:3 energy=-2.2887501785498126 pbc="F F F"
H        0.00000000       0.00000000       0.00000000       0.00000000       0.00000000      -0.08495232
H        0.00000000       0.00000000       2.47272727       0.00000000       0.00000000       0.08495232
2
Properties=species:S:1:pos:R:3:forces:R:3 energy=-2.29339140322527 pbc="F F F"
H        0.00000000       0.00000000       0.00000000       0.00000000       0.00000000      -0.07278606
H        0.00000000       0.00000000       2.53151515       0.00000000       0.00000000       0.07278606
2
Properties=species:S:1:pos:R:3:forces:R:3 energy=-2.2972947726622093 pbc="F F F"
H        0.00000000       0.00000000       0.00000000       0.00000000       0.00000000      -0.05994079
H        0.00000000       0.00000000       2.59030303       0.00000000       0.00000000       0.05994079
2
Properties=species:S:1:pos:R:3:forces:R:3 energy=-2.300436824309461 pbc="F F F"
H        0.00000000       0.00000000       0.00000000       0.00000000       0.00000000      -0.04697298
H        0.00000000       0.00000000       2.64909091       0.00000000       0.00000000       0.04697298
2
Properties=species:S:1:pos:R:3:forces:R:3 energy=-2.3028233980944104 pbc="F F F"
H        0.00000000       0.00000000       0.00000000       0.00000000       0.00000000      -0.03426619
H        0.00000000       0.00000000       2.70787879       0.00000000       0.00000000       0.03426619
2
Properties=species:S:1:pos:R:3:forces:R:3 energy=-2.304476017261637 pbc="F F F"
H        0.00000000       0.00000000       0.00000000       0.00000000       0.00000000      -0.02207638
H        0.00000000       0.00000000       2.76666667       0.00000000       0.00000000       0.02207638
2
Properties=species:S:1:pos:R:3:forces:R:3 energy=-2.3054318812453127 pbc="F F F"
H        0.00000000       0.00000000       0.00000000       0.00000000       0.00000000      -0.01057339
H        0.00000000       0.00000000       2.82545455       0.00000000       0.00000000       0.01057339
2
Properties=species:S:1:pos:R:3:forces:R:3 energy=-2.305734523787062 pbc="F F F"
H        0.00000000       0.00000000       0.00000000       0.00000000       0.00000000       0.00013178
H        0.00000000       0.00000000       2.88424242       0.00000000       0.00000000      -0.00013178
2
Properties=species:S:1:pos:R:3:forces:R:3 energy=-2.305433296105051 pbc="F F F"
H        0.00000000       0.00000000       0.00000000       0.00000000       0.00000000       0.00996968
H        0.00000000       0.00000000       2.94303030       0.00000000       0.00000000      -0.00996968
2
Properties=species:S:1:pos:R:3:forces:R:3 energy=-2.3045802183512154 pbc="F F F"
H        0.00000000       0.00000000       0.00000000       0.00000000       0.00000000       0.01890394
H        0.00000000       0.00000000       3.00181818       0.00000000       0.00000000      -0.01890394
2
Properties=species:S:1:pos:R:3:forces:R:3 energy=-2.3032287400010305 pbc="F F F"
H        0.00000000       0.00000000       0.00000000       0.00000000       0.00000000       0.02692529
H        0.00000000       0.00000000       3.06060606       0.00000000       0.00000000      -0.02692529
2
Properties=species:S:1:pos:R:3:forces:R:3 energy=-2.3014320174664618 pbc="F F F"
H        0.00000000       0.00000000       0.00000000       0.00000000       0.00000000       0.03404471
H        0.00000000       0.00000000       3.11939394       0.00000000       0.00000000      -0.03404471
2
Properties=species:S:1:pos:R:3:forces:R:3 energy=-2.2992431164805653 pbc="F F F"
H        0.00000000       0.00000000       0.00000000       0.00000000       0.00000000       0.04027968
H        0.00000000       0.00000000       3.17818182       0.00000000       0.00000000      -0.04027968
2
Properties=species:S:1:pos:R:3:forces:R:3 energy=-2.2967132966400468 pbc="F F F"
H        0.00000000       0.00000000       0.00000000       0.00000000       0.00000000       0.04564151
H        0.00000000       0.00000000       3.23696970       0.00000000       0.00000000      -0.04564151
2
Properties=species:S:1:pos:R:3:forces:R:3 energy=-2.2938941357896736 pbc="F F F"
H        0.00000000       0.00000000       0.00000000       0.00000000       0.00000000       0.05012210
H        0.00000000       0.00000000       3.29575758       0.00000000       0.00000000      -0.05012210
2
Properties=species:S:1:pos:R:3:forces:R:3 energy=-2.290837754383644 pbc="F F F"
H        0.00000000       0.00000000       0.00000000       0.00000000       0.00000000       0.05369204
H        0.00000000       0.00000000       3.35454545       0.00000000       0.00000000      -0.05369204
2
Properties=species:S:1:pos:R:3:forces:R:3 energy=-2.2875999062156027 pbc="F F F"
H        0.00000000       0.00000000       0.00000000       0.00000000       0.00000000       0.05631331
H        0.00000000       0.00000000       3.41333333       0.00000000       0.00000000      -0.05631331
2
Properties=species:S:1:pos:R:3:forces:R:3 energy=-2.2842359298565427 pbc="F F F"
H        0.00000000       0.00000000       0.00000000       0.00000000       0.00000000       0.05796389
H        0.00000000       0.00000000       3.47212121       0.00000000       0.00000000      -0.05796389
2
Properties=species:S:1:pos:R:3:forces:R:3 energy=-2.280802904717438 pbc="F F F"
H        0.00000000       0.00000000       0.00000000       0.00000000       0.00000000       0.05866901
H        0.00000000       0.00000000       3.53090909       0.00000000       0.00000000      -0.05866901
2
Properties=species:S:1:pos:R:3:forces:R:3 energy=-2.2773546604941703 pbc="F F F"
H        0.00000000       0.00000000       0.00000000       0.00000000       0.00000000       0.05851680
H        0.00000000       0.00000000       3.58969697       0.00000000       0.00000000      -0.05851680
2
Properties=species:S:1:pos:R:3:forces:R:3 energy=-2.2739367869094425 pbc="F F F"
H        0.00000000       0.00000000       0.00000000       0.00000000       0.00000000       0.05766061
H        0.00000000       0.00000000       3.64848485       0.00000000       0.00000000      -0.05766061
2
Properties=species:S:1:pos:R:3:forces:R:3 energy=-2.270585703797124 pbc="F F F"
H        0.00000000       0.00000000       0.00000000       0.00000000       0.00000000       0.05627801
H        0.00000000       0.00000000       3.70727273       0.00000000       0.00000000      -0.05627801
2
Properties=species:S:1:pos:R:3:forces:R:3 energy=-2.2673270094962286 pbc="F F F"
H        0.00000000       0.00000000       0.00000000       0.00000000       0.00000000       0.05451677
H        0.00000000       0.00000000       3.76606061       0.00000000       0.00000000      -0.05451677
2
Properties=species:S:1:pos:R:3:forces:R:3 energy=-2.264181699928835 pbc="F F F"
H        0.00000000       0.00000000       0.00000000       0.00000000       0.00000000       0.05244512
H        0.00000000       0.00000000       3.82484848       0.00000000       0.00000000      -0.05244512
2
Properties=species:S:1:pos:R:3:forces:R:3 energy=-2.2611678559431065 pbc="F F F"
H        0.00000000       0.00000000       0.00000000       0.00000000       0.00000000       0.05002621
H        0.00000000       0.00000000       3.88363636       0.00000000       0.00000000      -0.05002621
2
Properties=species:S:1:pos:R:3:forces:R:3 energy=-2.2583090029117225 pbc="F F F"
H        0.00000000       0.00000000       0.00000000       0.00000000       0.00000000       0.04714262
H        0.00000000       0.00000000       3.94242424       0.00000000       0.00000000      -0.04714262
2
Properties=species:S:1:pos:R:3:forces:R:3 energy=-2.255636984822092 pbc="F F F"
H        0.00000000       0.00000000       0.00000000       0.00000000       0.00000000       0.04365507
H        0.00000000       0.00000000       4.00121212       0.00000000       0.00000000      -0.04365507
2
Properties=species:S:1:pos:R:3:forces:R:3 energy=-2.2531898301904856 pbc="F F F"
H        0.00000000       0.00000000       0.00000000       0.00000000       0.00000000       0.03948633
H        0.00000000       0.00000000       4.06000000       0.00000000       0.00000000      -0.03948633
2
Properties=species:S:1:pos:R:3:forces:R:3 energy=-2.2510069910160446 pbc="F F F"
H        0.00000000       0.00000000       0.00000000       0.00000000       0.00000000       0.03467886
H        0.00000000       0.00000000       4.11878788       0.00000000       0.00000000      -0.03467886
2
Properties=species:S:1:pos:R:3:forces:R:3 energy=-2.249121007633977 pbc="F F F"
H        0.00000000       0.00000000       0.00000000       0.00000000       0.00000000       0.02942067
H        0.00000000       0.00000000       4.17757576       0.00000000       0.00000000      -0.02942067
2
Properties=species:S:1:pos:R:3:forces:R:3 energy=-2.2475505989820164 pbc="F F F"
H        0.00000000       0.00000000       0.00000000       0.00000000       0.00000000       0.02402169
H        0.00000000       0.00000000       4.23636364       0.00000000       0.00000000      -0.02402169
2
Properties=species:S:1:pos:R:3:forces:R:3 energy=-2.2462920833923574 pbc="F F F"
H        0.00000000       0.00000000       0.00000000       0.00000000       0.00000000       0.01885146
H        0.00000000       0.00000000       4.29515152       0.00000000       0.00000000      -0.01885146
2
Properties=species:S:1:pos:R:3:forces:R:3 energy=-2.24532248169598 pbc="F F F"
H        0.00000000       0.00000000       0.00000000       0.00000000       0.00000000       0.01426264
H        0.00000000       0.00000000       4.35393939       0.00000000       0.00000000      -0.01426264
2
Properties=species:S:1:pos:R:3:forces:R:3 energy=-2.2445985641422967 pbc="F F F"
H        0.00000000       0.00000000       0.00000000       0.00000000       0.00000000       0.01052305
H        0.00000000       0.00000000       4.41272727       0.00000000       0.00000000      -0.01052305
2
Properties=species:S:1:pos:R:3:forces:R:3 energy=-2.244065914066951 pbc="F F F"
H        0.00000000       0.00000000       0.00000000       0.00000000       0.00000000       0.00777464
H        0.00000000       0.00000000       4.47151515       0.00000000       0.00000000      -0.00777464
2
Properties=species:S:1:pos:R:3:forces:R:3 energy=-2.2436648858814303 pbc="F F F"
H        0.00000000       0.00000000       0.00000000       0.00000000       0.00000000       0.00602055
H        0.00000000       0.00000000       4.53030303       0.00000000       0.00000000      -0.00602055
2
Properties=species:S:1:pos:R:3:forces:R:3 energy=-2.243340620831269 pbc="F F F"
H        0.00000000       0.00000000       0.00000000       0.00000000       0.00000000       0.00515104
H        0.00000000       0.00000000       4.58909091       0.00000000       0.00000000      -0.00515104
2
Properties=species:S:1:pos:R:3:forces:R:3 energy=-2.243045431033344 pbc="F F F"
H        0.00000000       0.00000000       0.00000000       0.00000000       0.00000000       0.00499111
H        0.00000000       0.00000000       4.64787879       0.00000000       0.00000000      -0.00499111
2
Properties=species:S:1:pos:R:3:forces:R:3 energy=-2.242743327448994 pbc="F F F"
H        0.00000000       0.00000000       0.00000000       0.00000000       0.00000000       0.00536190
H        0.00000000       0.00000000       4.70666667       0.00000000       0.00000000      -0.00536190
2
Properties=species:S:1:pos:R:3:forces:R:3 energy=-2.242407398022103 pbc="F F F"
H        0.00000000       0.00000000       0.00000000       0.00000000       0.00000000       0.00611853
H        0.00000000       0.00000000       4.76545455       0.00000000       0.00000000      -0.00611853
2
Properties=species:S:1:pos:R:3:forces:R:3 energy=-2.242018375855951 pbc="F F F"
H        0.00000000       0.00000000       0.00000000       0.00000000       0.00000000       0.00715637
H        0.00000000       0.00000000       4.82424242       0.00000000       0.00000000      -0.00715637
2
Properties=species:S:1:pos:R:3:forces:R:3 energy=-2.2415622547056926 pbc="F F F"
H        0.00000000       0.00000000       0.00000000       0.00000000       0.00000000       0.00838497
H        0.00000000       0.00000000       4.88303030       0.00000000       0.00000000      -0.00838497
2
Properties=species:S:1:pos:R:3:forces:R:3 energy=-2.2410317172129566 pbc="F F F"
H        0.00000000       0.00000000       0.00000000       0.00000000       0.00000000       0.00965366
H        0.00000000       0.00000000       4.94181818       0.00000000       0.00000000      -0.00965366
2
Properties=species:S:1:pos:R:3:forces:R:3 energy=-2.2404316188301507 pbc="F F F"
H        0.00000000       0.00000000       0.00000000       0.00000000       0.00000000       0.01069112
H        0.00000000       0.00000000       5.00060606       0.00000000       0.00000000      -0.01069112
2
Properties=species:S:1:pos:R:3:forces:R:3 energy=-2.239786616472535 pbc="F F F"
H        0.00000000       0.00000000       0.00000000       0.00000000       0.00000000       0.01111169
H        0.00000000       0.00000000       5.05939394       0.00000000       0.00000000      -0.01111169
2
Properties=species:S:1:pos:R:3:forces:R:3 energy=-2.239144981285092 pbc="F F F"
H        0.00000000       0.00000000       0.00000000       0.00000000       0.00000000       0.01054176
H        0.00000000       0.00000000       5.11818182       0.00000000       0.00000000      -0.01054176
2
Properties=species:S:1:pos:R:3:forces:R:3 energy=-2.2385690617261282 pbc="F F F"
H        0.00000000       0.00000000       0.00000000       0.00000000       0.00000000       0.00888752
H        0.00000000       0.00000000       5.17696970       0.00000000       0.00000000      -0.00888752
2
Properties=species:S:1:pos:R:3:forces:R:3 energy=-2.238112633183539 pbc="F F F"
H        0.00000000       0.00000000       0.00000000       0.00000000       0.00000000       0.00660052
H        0.00000000       0.00000000       5.23575758       0.00000000       0.00000000      -0.00660052
2
Properties=species:S:1:pos:R:3:forces:R:3 energy=-2.2377877562331543 pbc="F F F"
H        0.00000000       0.00000000       0.00000000       0.00000000       0.00000000       0.00457376
H        0.00000000       0.00000000       5.29454545       0.00000000       0.00000000      -0.00457376
2
Properties=species:S:1:pos:R:3:forces:R:3 energy=-2.237554763219281 pbc="F F F"
H        0.00000000       0.00000000       0.00000000       0.00000000       0.00000000       0.00355400
H        0.00000000       0.00000000       5.35333333       0.00000000       0.00000000      -0.00355400
2
Properties=species:S:1:pos:R:3:forces:R:3 energy=-2.2373472911289434 pbc="F F F"
H        0.00000000       0.00000000       0.00000000       0.00000000       0.00000000       0.00366484
H        0.00000000       0.00000000       5.41212121       0.00000000       0.00000000      -0.00366484
2
Properties=species:S:1:pos:R:3:forces:R:3 energy=-2.2371094739621515 pbc="F F F"
H        0.00000000       0.00000000       0.00000000       0.00000000       0.00000000       0.00449633
H        0.00000000       0.00000000       5.47090909       0.00000000       0.00000000      -0.00449633
2
Properties=species:S:1:pos:R:3:forces:R:3 energy=-2.23681716192357 pbc="F F F"
H        0.00000000       0.00000000       0.00000000       0.00000000       0.00000000       0.00541198
H        0.00000000       0.00000000       5.52969697       0.00000000       0.00000000      -0.00541198
2
Properties=species:S:1:pos:R:3:forces:R:3 energy=-2.23647863601004 pbc="F F F"
H        0.00000000       0.00000000       0.00000000       0.00000000       0.00000000       0.00606807
H        0.00000000       0.00000000       5.58848485       0.00000000       0.00000000      -0.00606807
2
Properties=species:S:1:pos:R:3:forces:R:3 energy=-2.2361074275996047 pbc="F F F"
H        0.00000000       0.00000000       0.00000000       0.00000000       0.00000000       0.00653357
H        0.00000000       0.00000000       5.64727273       0.00000000       0.00000000      -0.00653357
2
Properties=species:S:1:pos:R:3:forces:R:3 energy=-2.2357180265087297 pbc="F F F"
H        0.00000000       0.00000000       0.00000000       0.00000000       0.00000000       0.00660312
H        0.00000000       0.00000000       5.70606061       0.00000000       0.00000000      -0.00660312
2
Properties=species:S:1:pos:R:3:forces:R:3 energy=-2.2353482922273713 pbc="F F F"
H        0.00000000       0.00000000       0.00000000       0.00000000       0.00000000       0.00577802
H        0.00000000       0.00000000       5.76484848       0.00000000       0.00000000      -0.00577802
2
Properties=species:S:1:pos:R:3:forces:R:3 energy=-2.2350558770092013 pbc="F F F"
H        0.00000000       0.00000000       0.00000000       0.00000000       0.00000000       0.00407224
H        0.00000000       0.00000000       5.82363636       0.00000000       0.00000000      -0.00407224
2
Properties=species:S:1:pos:R:3:forces:R:3 energy=-2.234875071551945 pbc="F F F"
H        0.00000000       0.00000000       0.00000000       0.00000000       0.00000000       0.00212570
H        0.00000000       0.00000000       5.88242424       0.00000000       0.00000000      -0.00212570
2
Properties=species:S:1:pos:R:3:forces:R:3 energy=-2.234796778059473 pbc="F F F"
H        0.00000000       0.00000000       0.00000000       0.00000000       0.00000000       0.00065070
H        0.00000000       0.00000000       5.94121212       0.00000000       0.00000000      -0.00065070
2
Properties=species:S:1:pos:R:3:forces:R:3 energy=-2.234779953566394 pbc="F F F"
H        0.00000000       0.00000000       0.00000000       0.00000000       0.00000000       0.00010019
H        0.00000000       0.00000000       6.00000000       0.00000000       0.00000000      -0.00010019
