2
Properties=species:S:1:pos:R:3:forces:R:3 energy=9446.121284083047 pbc="F F F"
I        0.00000000       0.00000000       0.00000000       0.00000000       0.00000000 -157723.59375000
I        0.00000000       0.00000000       0.18000000       0.00000000       0.00000000  157723.59375000
2
Properties=species:S:1:pos:R:3:forces:R:3 energy=3858.0651317392967 pbc="F F F"
I        0.00000000       0.00000000       0.00000000       0.00000000       0.00000000  -53926.08984375
I        0.00000000       0.00000000       0.23878788       0.00000000       0.00000000   53926.08984375
2
Properties=species:S:1:pos:R:3:forces:R:3 energy=1797.539374903359 pbc="F F F"
I        0.00000000       0.00000000       0.00000000       0.00000000       0.00000000  -21717.29101562
I        0.00000000       0.00000000       0.29757576       0.00000000       0.00000000   21717.29101562
2
Properties=species:S:1:pos:R:3:forces:R:3 energy=927.9458690503196 pbc="F F F"
I        0.00000000       0.00000000       0.00000000       0.00000000       0.00000000   -9670.60351562
I        0.00000000       0.00000000       0.35636364       0.00000000       0.00000000    9670.60351562
2
Properties=species:S:1:pos:R:3:forces:R:3 energy=528.4554515761865 pbc="F F F"
I        0.00000000       0.00000000       0.00000000       0.00000000       0.00000000   -4603.52734375
I        0.00000000       0.00000000       0.41515152       0.00000000       0.00000000    4603.52734375
2
Properties=species:S:1:pos:R:3:forces:R:3 energy=334.1550670737091 pbc="F F F"
I        0.00000000       0.00000000       0.00000000       0.00000000       0.00000000   -2292.51098633
I        0.00000000       0.00000000       0.47393939       0.00000000       0.00000000    2292.51098633
2
Properties=species:S:1:pos:R:3:forces:R:3 energy=236.1572033421917 pbc="F F F"
I        0.00000000       0.00000000       0.00000000       0.00000000       0.00000000   -1170.09045410
I        0.00000000       0.00000000       0.53272727       0.00000000       0.00000000    1170.09045410
2
Properties=species:S:1:pos:R:3:forces:R:3 energy=185.99896975663438 pbc="F F F"
I        0.00000000       0.00000000       0.00000000       0.00000000       0.00000000    -598.61199951
I        0.00000000       0.00000000       0.59151515       0.00000000       0.00000000     598.61199951
2
Properties=species:S:1:pos:R:3:forces:R:3 energy=160.47310620737593 pbc="F F F"
I        0.00000000       0.00000000       0.00000000       0.00000000       0.00000000    -301.97671509
I        0.00000000       0.00000000       0.65030303       0.00000000       0.00000000     301.97671509
2
Properties=species:S:1:pos:R:3:forces:R:3 energy=147.7416305325211 pbc="F F F"
I        0.00000000       0.00000000       0.00000000       0.00000000       0.00000000    -147.78535461
I        0.00000000       0.00000000       0.70909091       0.00000000       0.00000000     147.78535461
2
Properties=species:S:1:pos:R:3:forces:R:3 energy=141.6370317679165 pbc="F F F"
I        0.00000000       0.00000000       0.00000000       0.00000000       0.00000000     -69.45947266
I        0.00000000       0.00000000       0.76787879       0.00000000       0.00000000      69.45947266
2
Properties=species:S:1:pos:R:3:forces:R:3 energy=138.6411825038341 pbc="F F F"
I        0.00000000       0.00000000       0.00000000       0.00000000       0.00000000     -39.14321899
I        0.00000000       0.00000000       0.82666667       0.00000000       0.00000000      39.14321899
2
Properties=species:S:1:pos:R:3:forces:R:3 energy=136.36534986813155 pbc="F F F"
I        0.00000000       0.00000000       0.00000000       0.00000000       0.00000000     -43.08710480
I        0.00000000       0.00000000       0.88545455       0.00000000       0.00000000      43.08710480
2
Properties=species:S:1:pos:R:3:forces:R:3 energy=133.11049826696274 pbc="F F F"
I        0.00000000       0.00000000       0.00000000       0.00000000       0.00000000     -70.73696136
I        0.00000000       0.00000000       0.94424242       0.00000000       0.00000000      70.73696136
2
Properties=species:S:1:pos:R:3:forces:R:3 energy=127.76984675465688 pbc="F F F"
I        0.00000000       0.00000000       0.00000000       0.00000000       0.00000000    -112.73971558
I        0.00000000       0.00000000       1.00303030       0.00000000       0.00000000     112.73971558
2
Properties=species:S:1:pos:R:3:forces:R:3 energy=119.7146264863433 pbc="F F F"
I        0.00000000       0.00000000       0.00000000       0.00000000       0.00000000    -161.69580078
I        0.00000000       0.00000000       1.06181818       0.00000000       0.00000000     161.69580078
2
Properties=species:S:1:pos:R:3:forces:R:3 energy=108.86376760126414 pbc="F F F"
I        0.00000000       0.00000000       0.00000000       0.00000000       0.00000000    -204.99154663
I        0.00000000       0.00000000       1.12060606       0.00000000       0.00000000     204.99154663
2
Properties=species:S:1:pos:R:3:forces:R:3 energy=96.08980591585957 pbc="F F F"
I        0.00000000       0.00000000       0.00000000       0.00000000       0.00000000    -224.36862183
I        0.00000000       0.00000000       1.17939394       0.00000000       0.00000000     224.36862183
2
Properties=species:S:1:pos:R:3:forces:R:3 energy=83.07577072531151 pbc="F F F"
I        0.00000000       0.00000000       0.00000000       0.00000000       0.00000000    -214.54226685
I        0.00000000       0.00000000       1.23818182       0.00000000       0.00000000     214.54226685
2
Properties=species:S:1:pos:R:3:forces:R:3 energy=71.09199452443687 pbc="F F F"
I        0.00000000       0.00000000       0.00000000       0.00000000       0.00000000    -192.81362915
I        0.00000000       0.00000000       1.29696970       0.00000000       0.00000000     192.81362915
2
Properties=species:S:1:pos:R:3:forces:R:3 energy=60.37018982243879 pbc="F F F"
I        0.00000000       0.00000000       0.00000000       0.00000000       0.00000000    -172.38323975
I        0.00000000       0.00000000       1.35575758       0.00000000       0.00000000     172.38323975
2
Properties=species:S:1:pos:R:3:forces:R:3 energy=50.7898238388916 pbc="F F F"
I        0.00000000       0.00000000       0.00000000       0.00000000       0.00000000    -153.72393799
I        0.00000000       0.00000000       1.41454545       0.00000000       0.00000000     153.72393799
2
Properties=species:S:1:pos:R:3:forces:R:3 energy=42.27495380871442 pbc="F F F"
I        0.00000000       0.00000000       0.00000000       0.00000000       0.00000000    -136.18128967
I        0.00000000       0.00000000       1.47333333       0.00000000       0.00000000     136.18128967
2
Properties=species:S:1:pos:R:3:forces:R:3 energy=34.7513231200386 pbc="F F F"
I        0.00000000       0.00000000       0.00000000       0.00000000       0.00000000    -119.95145416
I        0.00000000       0.00000000       1.53212121       0.00000000       0.00000000     119.95145416
2
Properties=species:S:1:pos:R:3:forces:R:3 energy=28.162823592740146 pbc="F F F"
I        0.00000000       0.00000000       0.00000000       0.00000000       0.00000000    -104.17128754
I        0.00000000       0.00000000       1.59090909       0.00000000       0.00000000     104.17128754
2
Properties=species:S:1:pos:R:3:forces:R:3 energy=22.512068661913382 pbc="F F F"
I        0.00000000       0.00000000       0.00000000       0.00000000       0.00000000     -88.01551056
I        0.00000000       0.00000000       1.64969697       0.00000000       0.00000000      88.01551056
2
Properties=species:S:1:pos:R:3:forces:R:3 energy=17.80039958962494 pbc="F F F"
I        0.00000000       0.00000000       0.00000000       0.00000000       0.00000000     -72.62575531
I        0.00000000       0.00000000       1.70848485       0.00000000       0.00000000      72.62575531
2
Properties=species:S:1:pos:R:3:forces:R:3 energy=13.915099194058746 pbc="F F F"
I        0.00000000       0.00000000       0.00000000       0.00000000       0.00000000     -60.07934952
I        0.00000000       0.00000000       1.76727273       0.00000000       0.00000000      60.07934952
2
Properties=species:S:1:pos:R:3:forces:R:3 energy=10.68396681594666 pbc="F F F"
I        0.00000000       0.00000000       0.00000000       0.00000000       0.00000000     -50.20455170
I        0.00000000       0.00000000       1.82606061       0.00000000       0.00000000      50.20455170
2
Properties=species:S:1:pos:R:3:forces:R:3 energy=7.9768341835616585 pbc="F F F"
I        0.00000000       0.00000000       0.00000000       0.00000000       0.00000000     -42.15786743
I        0.00000000       0.00000000       1.88484848       0.00000000       0.00000000      42.15786743
2
Properties=species:S:1:pos:R:3:forces:R:3 energy=5.699761577407385 pbc="F F F"
I        0.00000000       0.00000000       0.00000000       0.00000000       0.00000000     -35.50436783
I        0.00000000       0.00000000       1.94363636       0.00000000       0.00000000      35.50436783
2
Properties=species:S:1:pos:R:3:forces:R:3 energy=3.785467138085174 pbc="F F F"
I        0.00000000       0.00000000       0.00000000       0.00000000       0.00000000     -29.71453857
I        0.00000000       0.00000000       2.00242424       0.00000000       0.00000000      29.71453857
2
Properties=species:S:1:pos:R:3:forces:R:3 energy=2.1989349941250316 pbc="F F F"
I        0.00000000       0.00000000       0.00000000       0.00000000       0.00000000     -24.30599213
I        0.00000000       0.00000000       2.06121212       0.00000000       0.00000000      24.30599213
2
Properties=species:S:1:pos:R:3:forces:R:3 energy=0.921098582681243 pbc="F F F"
I        0.00000000       0.00000000       0.00000000       0.00000000       0.00000000     -19.24418068
I        0.00000000       0.00000000       2.12000000       0.00000000       0.00000000      19.24418068
2
Properties=species:S:1:pos:R:3:forces:R:3 energy=-0.07578354889483914 pbc="F F F"
I        0.00000000       0.00000000       0.00000000       0.00000000       0.00000000     -14.79502201
I        0.00000000       0.00000000       2.17878788       0.00000000       0.00000000      14.79502201
2
Properties=species:S:1:pos:R:3:forces:R:3 energy=-0.8345116186299624 pbc="F F F"
I        0.00000000       0.00000000       0.00000000       0.00000000       0.00000000     -11.15786457
I        0.00000000       0.00000000       2.23757576       0.00000000       0.00000000      11.15786457
2
Properties=species:S:1:pos:R:3:forces:R:3 energy=-1.4034134445068853 pbc="F F F"
I        0.00000000       0.00000000       0.00000000       0.00000000       0.00000000      -8.31898785
I        0.00000000       0.00000000       2.29636364       0.00000000       0.00000000       8.31898785
2
Properties=species:S:1:pos:R:3:forces:R:3 energy=-1.825229267856495 pbc="F F F"
I        0.00000000       0.00000000       0.00000000       0.00000000       0.00000000      -6.12286997
I        0.00000000       0.00000000       2.35515152       0.00000000       0.00000000       6.12286997
2
Properties=species:S:1:pos:R:3:forces:R:3 energy=-2.132316698857737 pbc="F F F"
I        0.00000000       0.00000000       0.00000000       0.00000000       0.00000000      -4.38791561
I        0.00000000       0.00000000       2.41393939       0.00000000       0.00000000       4.38791561
2
Properties=species:S:1:pos:R:3:forces:R:3 energy=-2.347470691760152 pbc="F F F"
I        0.00000000       0.00000000       0.00000000       0.00000000       0.00000000      -2.97793603
I        0.00000000       0.00000000       2.47272727       0.00000000       0.00000000       2.97793603
2
Properties=species:S:1:pos:R:3:forces:R:3 energy=-2.4873184143741502 pbc="F F F"
I        0.00000000       0.00000000       0.00000000       0.00000000       0.00000000      -1.81786060
I        0.00000000       0.00000000       2.53151515       0.00000000       0.00000000       1.81786060
2
Properties=species:S:1:pos:R:3:forces:R:3 energy=-2.5654437520605367 pbc="F F F"
I        0.00000000       0.00000000       0.00000000       0.00000000       0.00000000      -0.87451029
I        0.00000000       0.00000000       2.59030303       0.00000000       0.00000000       0.87451029
2
Properties=species:S:1:pos:R:3:forces:R:3 energy=-2.5940290644018473 pbc="F F F"
I        0.00000000       0.00000000       0.00000000       0.00000000       0.00000000      -0.12941793
I        0.00000000       0.00000000       2.64909091       0.00000000       0.00000000       0.12941793
2
Properties=species:S:1:pos:R:3:forces:R:3 energy=-2.584088371244002 pbc="F F F"
I        0.00000000       0.00000000       0.00000000       0.00000000       0.00000000       0.44130486
I        0.00000000       0.00000000       2.70787879       0.00000000       0.00000000      -0.44130486
2
Properties=species:S:1:pos:R:3:forces:R:3 energy=-2.544816851777849 pbc="F F F"
I        0.00000000       0.00000000       0.00000000       0.00000000       0.00000000       0.87590754
I        0.00000000       0.00000000       2.76666667       0.00000000       0.00000000      -0.87590754
2
Properties=species:S:1:pos:R:3:forces:R:3 energy=-2.4828442379266593 pbc="F F F"
I        0.00000000       0.00000000       0.00000000       0.00000000       0.00000000       1.22122443
I        0.00000000       0.00000000       2.82545455       0.00000000       0.00000000      -1.22122443
2
Properties=species:S:1:pos:R:3:forces:R:3 energy=-2.4022591267055544 pbc="F F F"
I        0.00000000       0.00000000       0.00000000       0.00000000       0.00000000       1.51295376
I        0.00000000       0.00000000       2.88424242       0.00000000       0.00000000      -1.51295376
2
Properties=species:S:1:pos:R:3:forces:R:3 energy=-2.3058705931396206 pbc="F F F"
I        0.00000000       0.00000000       0.00000000       0.00000000       0.00000000       1.75703716
I        0.00000000       0.00000000       2.94303030       0.00000000       0.00000000      -1.75703716
2
Properties=species:S:1:pos:R:3:forces:R:3 energy=-2.1970415499416514 pbc="F F F"
I        0.00000000       0.00000000       0.00000000       0.00000000       0.00000000       1.93116808
I        0.00000000       0.00000000       3.00181818       0.00000000       0.00000000      -1.93116808
2
Properties=species:S:1:pos:R:3:forces:R:3 energy=-2.080743841591509 pbc="F F F"
I        0.00000000       0.00000000       0.00000000       0.00000000       0.00000000       2.00747323
I        0.00000000       0.00000000       3.06060606       0.00000000       0.00000000      -2.00747323
2
Properties=species:S:1:pos:R:3:forces:R:3 energy=-1.9631154523494518 pbc="F F F"
I        0.00000000       0.00000000       0.00000000       0.00000000       0.00000000       1.97740233
I        0.00000000       0.00000000       3.11939394       0.00000000       0.00000000      -1.97740233
2
Properties=species:S:1:pos:R:3:forces:R:3 energy=-1.849975662351903 pbc="F F F"
I        0.00000000       0.00000000       0.00000000       0.00000000       0.00000000       1.85980582
I        0.00000000       0.00000000       3.17818182       0.00000000       0.00000000      -1.85980582
2
Properties=species:S:1:pos:R:3:forces:R:3 energy=-1.7454694605912162 pbc="F F F"
I        0.00000000       0.00000000       0.00000000       0.00000000       0.00000000       1.69004893
I        0.00000000       0.00000000       3.23696970       0.00000000       0.00000000      -1.69004893
2
Properties=species:S:1:pos:R:3:forces:R:3 energy=-1.65159518985711 pbc="F F F"
I        0.00000000       0.00000000       0.00000000       0.00000000       0.00000000       1.50314581
I        0.00000000       0.00000000       3.29575758       0.00000000       0.00000000      -1.50314581
2
Properties=species:S:1:pos:R:3:forces:R:3 energy=-1.56858734394056 pbc="F F F"
I        0.00000000       0.00000000       0.00000000       0.00000000       0.00000000       1.32333076
I        0.00000000       0.00000000       3.35454545       0.00000000       0.00000000      -1.32333076
2
Properties=species:S:1:pos:R:3:forces:R:3 energy=-1.4956277682717234 pbc="F F F"
I        0.00000000       0.00000000       0.00000000       0.00000000       0.00000000       1.16237712
I        0.00000000       0.00000000       3.41333333       0.00000000       0.00000000      -1.16237712
2
Properties=species:S:1:pos:R:3:forces:R:3 energy=-1.4314967500859808 pbc="F F F"
I        0.00000000       0.00000000       0.00000000       0.00000000       0.00000000       1.02289975
I        0.00000000       0.00000000       3.47212121       0.00000000       0.00000000      -1.02289975
2
Properties=species:S:1:pos:R:3:forces:R:3 energy=-1.3749773578557112 pbc="F F F"
I        0.00000000       0.00000000       0.00000000       0.00000000       0.00000000       0.90294403
I        0.00000000       0.00000000       3.53090909       0.00000000       0.00000000      -0.90294403
2
Properties=species:S:1:pos:R:3:forces:R:3 energy=-1.3250026485550745 pbc="F F F"
I        0.00000000       0.00000000       0.00000000       0.00000000       0.00000000       0.79985380
I        0.00000000       0.00000000       3.58969697       0.00000000       0.00000000      -0.79985380
2
Properties=species:S:1:pos:R:3:forces:R:3 energy=-1.2806307059915596 pbc="F F F"
I        0.00000000       0.00000000       0.00000000       0.00000000       0.00000000       0.71226573
I        0.00000000       0.00000000       3.64848485       0.00000000       0.00000000      -0.71226573
2
Properties=species:S:1:pos:R:3:forces:R:3 energy=-1.2409556939722826 pbc="F F F"
I        0.00000000       0.00000000       0.00000000       0.00000000       0.00000000       0.64010638
I        0.00000000       0.00000000       3.70727273       0.00000000       0.00000000      -0.64010638
2
Properties=species:S:1:pos:R:3:forces:R:3 energy=-1.2050628017206977 pbc="F F F"
I        0.00000000       0.00000000       0.00000000       0.00000000       0.00000000       0.58355761
I        0.00000000       0.00000000       3.76606061       0.00000000       0.00000000      -0.58355761
2
Properties=species:S:1:pos:R:3:forces:R:3 energy=-1.1720482420636298 pbc="F F F"
I        0.00000000       0.00000000       0.00000000       0.00000000       0.00000000       0.54202801
I        0.00000000       0.00000000       3.82484848       0.00000000       0.00000000      -0.54202801
2
Properties=species:S:1:pos:R:3:forces:R:3 energy=-1.1410746425855591 pbc="F F F"
I        0.00000000       0.00000000       0.00000000       0.00000000       0.00000000       0.51368213
I        0.00000000       0.00000000       3.88363636       0.00000000       0.00000000      -0.51368213
2
Properties=species:S:1:pos:R:3:forces:R:3 energy=-1.111449467838201 pbc="F F F"
I        0.00000000       0.00000000       0.00000000       0.00000000       0.00000000       0.49564433
I        0.00000000       0.00000000       3.94242424       0.00000000       0.00000000      -0.49564433
2
Properties=species:S:1:pos:R:3:forces:R:3 energy=-1.0826633093610423 pbc="F F F"
I        0.00000000       0.00000000       0.00000000       0.00000000       0.00000000       0.48454699
I        0.00000000       0.00000000       4.00121212       0.00000000       0.00000000      -0.48454699
2
Properties=species:S:1:pos:R:3:forces:R:3 energy=-1.054406289877884 pbc="F F F"
I        0.00000000       0.00000000       0.00000000       0.00000000       0.00000000       0.47713345
I        0.00000000       0.00000000       4.06000000       0.00000000       0.00000000      -0.47713345
2
Properties=species:S:1:pos:R:3:forces:R:3 energy=-1.0265461252837094 pbc="F F F"
I        0.00000000       0.00000000       0.00000000       0.00000000       0.00000000       0.47067747
I        0.00000000       0.00000000       4.11878788       0.00000000       0.00000000      -0.47067747
2
Properties=species:S:1:pos:R:3:forces:R:3 energy=-0.9990873331408431 pbc="F F F"
I        0.00000000       0.00000000       0.00000000       0.00000000       0.00000000       0.46316722
I        0.00000000       0.00000000       4.17757576       0.00000000       0.00000000      -0.46316722
2
Properties=species:S:1:pos:R:3:forces:R:3 energy=-0.9721344554451737 pbc="F F F"
I        0.00000000       0.00000000       0.00000000       0.00000000       0.00000000       0.45330939
I        0.00000000       0.00000000       4.23636364       0.00000000       0.00000000      -0.45330939
2
Properties=species:S:1:pos:R:3:forces:R:3 energy=-0.945847851818581 pbc="F F F"
I        0.00000000       0.00000000       0.00000000       0.00000000       0.00000000       0.44043791
I        0.00000000       0.00000000       4.29515152       0.00000000       0.00000000      -0.44043791
2
Properties=species:S:1:pos:R:3:forces:R:3 energy=-0.9204120076768957 pbc="F F F"
I        0.00000000       0.00000000       0.00000000       0.00000000       0.00000000       0.42442942
I        0.00000000       0.00000000       4.35393939       0.00000000       0.00000000      -0.42442942
2
Properties=species:S:1:pos:R:3:forces:R:3 energy=-0.8960009950461351 pbc="F F F"
I        0.00000000       0.00000000       0.00000000       0.00000000       0.00000000       0.40563449
I        0.00000000       0.00000000       4.41272727       0.00000000       0.00000000      -0.40563449
2
Properties=species:S:1:pos:R:3:forces:R:3 energy=-0.8727577622403009 pbc="F F F"
I        0.00000000       0.00000000       0.00000000       0.00000000       0.00000000       0.38485467
I        0.00000000       0.00000000       4.47151515       0.00000000       0.00000000      -0.38485467
2
Properties=species:S:1:pos:R:3:forces:R:3 energy=-0.8507658731721839 pbc="F F F"
I        0.00000000       0.00000000       0.00000000       0.00000000       0.00000000       0.36330473
I        0.00000000       0.00000000       4.53030303       0.00000000       0.00000000      -0.36330473
2
Properties=species:S:1:pos:R:3:forces:R:3 energy=-0.8300274948164846 pbc="F F F"
I        0.00000000       0.00000000       0.00000000       0.00000000       0.00000000       0.34251463
I        0.00000000       0.00000000       4.58909091       0.00000000       0.00000000      -0.34251463
2
Properties=species:S:1:pos:R:3:forces:R:3 energy=-0.8104473602245298 pbc="F F F"
I        0.00000000       0.00000000       0.00000000       0.00000000       0.00000000       0.32416967
I        0.00000000       0.00000000       4.64787879       0.00000000       0.00000000      -0.32416967
2
Properties=species:S:1:pos:R:3:forces:R:3 energy=-0.7918329863520072 pbc="F F F"
I        0.00000000       0.00000000       0.00000000       0.00000000       0.00000000       0.30987996
I        0.00000000       0.00000000       4.70666667       0.00000000       0.00000000      -0.30987996
2
Properties=species:S:1:pos:R:3:forces:R:3 energy=-0.7739083799594422 pbc="F F F"
I        0.00000000       0.00000000       0.00000000       0.00000000       0.00000000       0.30091986
I        0.00000000       0.00000000       4.76545455       0.00000000       0.00000000      -0.30091986
2
Properties=species:S:1:pos:R:3:forces:R:3 energy=-0.756332840417749 pbc="F F F"
I        0.00000000       0.00000000       0.00000000       0.00000000       0.00000000       0.29798439
I        0.00000000       0.00000000       4.82424242       0.00000000       0.00000000      -0.29798439
2
Properties=species:S:1:pos:R:3:forces:R:3 energy=-0.7387570076652286 pbc="F F F"
I        0.00000000       0.00000000       0.00000000       0.00000000       0.00000000       0.30094674
I        0.00000000       0.00000000       4.88303030       0.00000000       0.00000000      -0.30094674
2
Properties=species:S:1:pos:R:3:forces:R:3 energy=-0.7208545206094588 pbc="F F F"
I        0.00000000       0.00000000       0.00000000       0.00000000       0.00000000       0.30872947
I        0.00000000       0.00000000       4.94181818       0.00000000       0.00000000      -0.30872947
2
Properties=species:S:1:pos:R:3:forces:R:3 energy=-0.7024015277235546 pbc="F F F"
I        0.00000000       0.00000000       0.00000000       0.00000000       0.00000000       0.31931850
I        0.00000000       0.00000000       5.00060606       0.00000000       0.00000000      -0.31931850
2
Properties=species:S:1:pos:R:3:forces:R:3 energy=-0.6833023392181764 pbc="F F F"
I        0.00000000       0.00000000       0.00000000       0.00000000       0.00000000       0.33027458
I        0.00000000       0.00000000       5.05939394       0.00000000       0.00000000      -0.33027458
2
Properties=species:S:1:pos:R:3:forces:R:3 energy=-0.663593669474711 pbc="F F F"
I        0.00000000       0.00000000       0.00000000       0.00000000       0.00000000       0.34009075
I        0.00000000       0.00000000       5.11818182       0.00000000       0.00000000      -0.34009075
2
Properties=species:S:1:pos:R:3:forces:R:3 energy=-0.6433151189040371 pbc="F F F"
I        0.00000000       0.00000000       0.00000000       0.00000000       0.00000000       0.35015118
I        0.00000000       0.00000000       5.17696970       0.00000000       0.00000000      -0.35015118
2
Properties=species:S:1:pos:R:3:forces:R:3 energy=-0.62233561947614 pbc="F F F"
I        0.00000000       0.00000000       0.00000000       0.00000000       0.00000000       0.36472902
I        0.00000000       0.00000000       5.23575758       0.00000000       0.00000000      -0.36472902
2
Properties=species:S:1:pos:R:3:forces:R:3 energy=-0.600302362251049 pbc="F F F"
I        0.00000000       0.00000000       0.00000000       0.00000000       0.00000000       0.38559270
I        0.00000000       0.00000000       5.29454545       0.00000000       0.00000000      -0.38559270
2
Properties=species:S:1:pos:R:3:forces:R:3 energy=-0.5770123541034317 pbc="F F F"
I        0.00000000       0.00000000       0.00000000       0.00000000       0.00000000       0.40556219
I        0.00000000       0.00000000       5.35333333       0.00000000       0.00000000      -0.40556219
2
Properties=species:S:1:pos:R:3:forces:R:3 energy=-0.5528667926412267 pbc="F F F"
I        0.00000000       0.00000000       0.00000000       0.00000000       0.00000000       0.41328213
I        0.00000000       0.00000000       5.41212121       0.00000000       0.00000000      -0.41328213
2
Properties=species:S:1:pos:R:3:forces:R:3 energy=-0.5287178957318164 pbc="F F F"
I        0.00000000       0.00000000       0.00000000       0.00000000       0.00000000       0.40626106
I        0.00000000       0.00000000       5.47090909       0.00000000       0.00000000      -0.40626106
2
Properties=species:S:1:pos:R:3:forces:R:3 energy=-0.5051919871824426 pbc="F F F"
I        0.00000000       0.00000000       0.00000000       0.00000000       0.00000000       0.39449388
I        0.00000000       0.00000000       5.52969697       0.00000000       0.00000000      -0.39449388
2
Properties=species:S:1:pos:R:3:forces:R:3 energy=-0.48217142979888616 pbc="F F F"
I        0.00000000       0.00000000       0.00000000       0.00000000       0.00000000       0.39056677
I        0.00000000       0.00000000       5.58848485       0.00000000       0.00000000      -0.39056677
2
Properties=species:S:1:pos:R:3:forces:R:3 energy=-0.45916007730169517 pbc="F F F"
I        0.00000000       0.00000000       0.00000000       0.00000000       0.00000000       0.39215201
I        0.00000000       0.00000000       5.64727273       0.00000000       0.00000000      -0.39215201
2
Properties=species:S:1:pos:R:3:forces:R:3 energy=-0.4364340050580289 pbc="F F F"
I        0.00000000       0.00000000       0.00000000       0.00000000       0.00000000       0.37500277
I        0.00000000       0.00000000       5.70606061       0.00000000       0.00000000      -0.37500277
2
Properties=species:S:1:pos:R:3:forces:R:3 energy=-0.4158736766618998 pbc="F F F"
I        0.00000000       0.00000000       0.00000000       0.00000000       0.00000000       0.31535393
I        0.00000000       0.00000000       5.76484848       0.00000000       0.00000000      -0.31535393
2
Properties=species:S:1:pos:R:3:forces:R:3 energy=-0.4000925359068903 pbc="F F F"
I        0.00000000       0.00000000       0.00000000       0.00000000       0.00000000       0.21759503
I        0.00000000       0.00000000       5.82363636       0.00000000       0.00000000      -0.21759503
2
Properties=species:S:1:pos:R:3:forces:R:3 energy=-0.3904749418813922 pbc="F F F"
I        0.00000000       0.00000000       0.00000000       0.00000000       0.00000000       0.11270875
I        0.00000000       0.00000000       5.88242424       0.00000000       0.00000000      -0.11270875
2
Properties=species:S:1:pos:R:3:forces:R:3 energy=-0.38631605670947383 pbc="F F F"
I        0.00000000       0.00000000       0.00000000       0.00000000       0.00000000       0.03482550
I        0.00000000       0.00000000       5.94121212       0.00000000       0.00000000      -0.03482550
2
Properties=species:S:1:pos:R:3:forces:R:3 energy=-0.38539647452824943 pbc="F F F"
I        0.00000000       0.00000000       0.00000000       0.00000000       0.00000000       0.00598860
I        0.00000000       0.00000000       6.00000000       0.00000000       0.00000000      -0.00598860
