2
Properties=species:S:1:pos:R:3:forces:R:3 energy=10376.496367437421 pbc="F F F"
La       0.00000000       0.00000000       0.00000000       0.00000000       0.00000000 -175973.12500000
La       0.00000000       0.00000000       0.18000000       0.00000000       0.00000000  175973.12500000
2
Properties=species:S:1:pos:R:3:forces:R:3 energy=4160.51248071867 pbc="F F F"
La       0.00000000       0.00000000       0.00000000       0.00000000       0.00000000  -59733.51953125
La       0.00000000       0.00000000       0.23878788       0.00000000       0.00000000   59733.51953125
2
Properties=species:S:1:pos:R:3:forces:R:3 energy=1885.0305471249203 pbc="F F F"
La       0.00000000       0.00000000       0.00000000       0.00000000       0.00000000  -23884.40625000
La       0.00000000       0.00000000       0.29757576       0.00000000       0.00000000   23884.40625000
2
Properties=species:S:1:pos:R:3:forces:R:3 energy=931.4046926327328 pbc="F F F"
La       0.00000000       0.00000000       0.00000000       0.00000000       0.00000000  -10569.09179688
La       0.00000000       0.00000000       0.35636364       0.00000000       0.00000000   10569.09179688
2
Properties=species:S:1:pos:R:3:forces:R:3 energy=495.48895166593593 pbc="F F F"
La       0.00000000       0.00000000       0.00000000       0.00000000       0.00000000   -5018.73583984
La       0.00000000       0.00000000       0.41515152       0.00000000       0.00000000    5018.73583984
2
Properties=species:S:1:pos:R:3:forces:R:3 energy=283.2239675414122 pbc="F F F"
La       0.00000000       0.00000000       0.00000000       0.00000000       0.00000000   -2517.67285156
La       0.00000000       0.00000000       0.47393939       0.00000000       0.00000000    2517.67285156
2
Properties=species:S:1:pos:R:3:forces:R:3 energy=174.49513148817755 pbc="F F F"
La       0.00000000       0.00000000       0.00000000       0.00000000       0.00000000   -1321.59777832
La       0.00000000       0.00000000       0.53272727       0.00000000       0.00000000    1321.59777832
2
Properties=species:S:1:pos:R:3:forces:R:3 energy=116.43093014586837 pbc="F F F"
La       0.00000000       0.00000000       0.00000000       0.00000000       0.00000000    -719.60162354
La       0.00000000       0.00000000       0.59151515       0.00000000       0.00000000     719.60162354
2
Properties=species:S:1:pos:R:3:forces:R:3 energy=84.42037871857424 pbc="F F F"
La       0.00000000       0.00000000       0.00000000       0.00000000       0.00000000    -401.71826172
La       0.00000000       0.00000000       0.65030303       0.00000000       0.00000000     401.71826172
2
Properties=species:S:1:pos:R:3:forces:R:3 energy=66.46192843286964 pbc="F F F"
La       0.00000000       0.00000000       0.00000000       0.00000000       0.00000000    -225.78215027
La       0.00000000       0.00000000       0.70909091       0.00000000       0.00000000     225.78215027
2
Properties=species:S:1:pos:R:3:forces:R:3 energy=56.44048989125763 pbc="F F F"
La       0.00000000       0.00000000       0.00000000       0.00000000       0.00000000    -124.07563782
La       0.00000000       0.00000000       0.76787879       0.00000000       0.00000000     124.07563782
2
Properties=species:S:1:pos:R:3:forces:R:3 energy=51.072909553467 pbc="F F F"
La       0.00000000       0.00000000       0.00000000       0.00000000       0.00000000     -63.77368927
La       0.00000000       0.00000000       0.82666667       0.00000000       0.00000000      63.77368927
2
Properties=species:S:1:pos:R:3:forces:R:3 energy=48.443595244901175 pbc="F F F"
La       0.00000000       0.00000000       0.00000000       0.00000000       0.00000000     -29.16609955
La       0.00000000       0.00000000       0.88545455       0.00000000       0.00000000      29.16609955
2
Properties=species:S:1:pos:R:3:forces:R:3 energy=47.29884289451523 pbc="F F F"
La       0.00000000       0.00000000       0.00000000       0.00000000       0.00000000     -12.18594170
La       0.00000000       0.00000000       0.94424242       0.00000000       0.00000000      12.18594170
2
Properties=species:S:1:pos:R:3:forces:R:3 energy=46.792384833792084 pbc="F F F"
La       0.00000000       0.00000000       0.00000000       0.00000000       0.00000000      -6.33910084
La       0.00000000       0.00000000       1.00303030       0.00000000       0.00000000       6.33910084
2
Properties=species:S:1:pos:R:3:forces:R:3 energy=46.45880511447752 pbc="F F F"
La       0.00000000       0.00000000       0.00000000       0.00000000       0.00000000      -5.44887638
La       0.00000000       0.00000000       1.06181818       0.00000000       0.00000000       5.44887638
2
Properties=species:S:1:pos:R:3:forces:R:3 energy=46.117645686730825 pbc="F F F"
La       0.00000000       0.00000000       0.00000000       0.00000000       0.00000000      -6.42196560
La       0.00000000       0.00000000       1.12060606       0.00000000       0.00000000       6.42196560
2
Properties=species:S:1:pos:R:3:forces:R:3 energy=45.66367051609213 pbc="F F F"
La       0.00000000       0.00000000       0.00000000       0.00000000       0.00000000      -9.45559883
La       0.00000000       0.00000000       1.17939394       0.00000000       0.00000000       9.45559883
2
Properties=species:S:1:pos:R:3:forces:R:3 energy=44.94659201240148 pbc="F F F"
La       0.00000000       0.00000000       0.00000000       0.00000000       0.00000000     -15.48772144
La       0.00000000       0.00000000       1.23818182       0.00000000       0.00000000      15.48772144
2
Properties=species:S:1:pos:R:3:forces:R:3 energy=43.777998494690614 pbc="F F F"
La       0.00000000       0.00000000       0.00000000       0.00000000       0.00000000     -24.78824806
La       0.00000000       0.00000000       1.29696970       0.00000000       0.00000000      24.78824806
2
Properties=species:S:1:pos:R:3:forces:R:3 energy=41.98153273168628 pbc="F F F"
La       0.00000000       0.00000000       0.00000000       0.00000000       0.00000000     -36.63367081
La       0.00000000       0.00000000       1.35575758       0.00000000       0.00000000      36.63367081
2
Properties=species:S:1:pos:R:3:forces:R:3 energy=39.45351893178847 pbc="F F F"
La       0.00000000       0.00000000       0.00000000       0.00000000       0.00000000     -49.35981750
La       0.00000000       0.00000000       1.41454545       0.00000000       0.00000000      49.35981750
2
Properties=species:S:1:pos:R:3:forces:R:3 energy=36.194105918875714 pbc="F F F"
La       0.00000000       0.00000000       0.00000000       0.00000000       0.00000000     -61.29268265
La       0.00000000       0.00000000       1.47333333       0.00000000       0.00000000      61.29268265
2
Properties=species:S:1:pos:R:3:forces:R:3 energy=32.28221983005894 pbc="F F F"
La       0.00000000       0.00000000       0.00000000       0.00000000       0.00000000     -71.43348694
La       0.00000000       0.00000000       1.53212121       0.00000000       0.00000000      71.43348694
2
Properties=species:S:1:pos:R:3:forces:R:3 energy=27.84618526270416 pbc="F F F"
La       0.00000000       0.00000000       0.00000000       0.00000000       0.00000000     -78.95391846
La       0.00000000       0.00000000       1.59090909       0.00000000       0.00000000      78.95391846
2
Properties=species:S:1:pos:R:3:forces:R:3 energy=23.077807178703367 pbc="F F F"
La       0.00000000       0.00000000       0.00000000       0.00000000       0.00000000     -82.43647003
La       0.00000000       0.00000000       1.64969697       0.00000000       0.00000000      82.43647003
2
Properties=species:S:1:pos:R:3:forces:R:3 energy=18.270330969636042 pbc="F F F"
La       0.00000000       0.00000000       0.00000000       0.00000000       0.00000000     -80.00679779
La       0.00000000       0.00000000       1.70848485       0.00000000       0.00000000      80.00679779
2
Properties=species:S:1:pos:R:3:forces:R:3 energy=13.798998041817129 pbc="F F F"
La       0.00000000       0.00000000       0.00000000       0.00000000       0.00000000     -71.16785431
La       0.00000000       0.00000000       1.76727273       0.00000000       0.00000000      71.16785431
2
Properties=species:S:1:pos:R:3:forces:R:3 energy=9.976832051145353 pbc="F F F"
La       0.00000000       0.00000000       0.00000000       0.00000000       0.00000000     -58.60947037
La       0.00000000       0.00000000       1.82606061       0.00000000       0.00000000      58.60947037
2
Properties=species:S:1:pos:R:3:forces:R:3 energy=6.8959924272520565 pbc="F F F"
La       0.00000000       0.00000000       0.00000000       0.00000000       0.00000000     -46.58086014
La       0.00000000       0.00000000       1.88484848       0.00000000       0.00000000      46.58086014
2
Properties=species:S:1:pos:R:3:forces:R:3 energy=4.441996423547097 pbc="F F F"
La       0.00000000       0.00000000       0.00000000       0.00000000       0.00000000     -37.41653824
La       0.00000000       0.00000000       1.94363636       0.00000000       0.00000000      37.41653824
2
Properties=species:S:1:pos:R:3:forces:R:3 energy=2.445571066710961 pbc="F F F"
La       0.00000000       0.00000000       0.00000000       0.00000000       0.00000000     -30.83762360
La       0.00000000       0.00000000       2.00242424       0.00000000       0.00000000      30.83762360
2
Properties=species:S:1:pos:R:3:forces:R:3 energy=0.7883948236919036 pbc="F F F"
La       0.00000000       0.00000000       0.00000000       0.00000000       0.00000000     -25.69781113
La       0.00000000       0.00000000       2.06121212       0.00000000       0.00000000      25.69781113
2
Properties=species:S:1:pos:R:3:forces:R:3 energy=-0.5886621537723685 pbc="F F F"
La       0.00000000       0.00000000       0.00000000       0.00000000       0.00000000     -21.22961998
La       0.00000000       0.00000000       2.12000000       0.00000000       0.00000000      21.22961998
2
Properties=species:S:1:pos:R:3:forces:R:3 energy=-1.7158829530466064 pbc="F F F"
La       0.00000000       0.00000000       0.00000000       0.00000000       0.00000000     -17.18748474
La       0.00000000       0.00000000       2.17878788       0.00000000       0.00000000      17.18748474
2
Properties=species:S:1:pos:R:3:forces:R:3 energy=-2.618082934529198 pbc="F F F"
La       0.00000000       0.00000000       0.00000000       0.00000000       0.00000000     -13.58323193
La       0.00000000       0.00000000       2.23757576       0.00000000       0.00000000      13.58323193
2
Properties=species:S:1:pos:R:3:forces:R:3 energy=-3.3221982871622453 pbc="F F F"
La       0.00000000       0.00000000       0.00000000       0.00000000       0.00000000     -10.44955349
La       0.00000000       0.00000000       2.29636364       0.00000000       0.00000000      10.44955349
2
Properties=species:S:1:pos:R:3:forces:R:3 energy=-3.855689891824271 pbc="F F F"
La       0.00000000       0.00000000       0.00000000       0.00000000       0.00000000      -7.77553415
La       0.00000000       0.00000000       2.35515152       0.00000000       0.00000000       7.77553415
2
Properties=species:S:1:pos:R:3:forces:R:3 energy=-4.245348346068922 pbc="F F F"
La       0.00000000       0.00000000       0.00000000       0.00000000       0.00000000      -5.55775452
La       0.00000000       0.00000000       2.41393939       0.00000000       0.00000000       5.55775452
2
Properties=species:S:1:pos:R:3:forces:R:3 energy=-4.5180892294704496 pbc="F F F"
La       0.00000000       0.00000000       0.00000000       0.00000000       0.00000000      -3.79424524
La       0.00000000       0.00000000       2.47272727       0.00000000       0.00000000       3.79424524
2
Properties=species:S:1:pos:R:3:forces:R:3 energy=-4.699377169487135 pbc="F F F"
La       0.00000000       0.00000000       0.00000000       0.00000000       0.00000000      -2.43358874
La       0.00000000       0.00000000       2.53151515       0.00000000       0.00000000       2.43358874
2
Properties=species:S:1:pos:R:3:forces:R:3 energy=-4.8104405745996885 pbc="F F F"
La       0.00000000       0.00000000       0.00000000       0.00000000       0.00000000      -1.39075816
La       0.00000000       0.00000000       2.59030303       0.00000000       0.00000000       1.39075816
2
Properties=species:S:1:pos:R:3:forces:R:3 energy=-4.867623787675384 pbc="F F F"
La       0.00000000       0.00000000       0.00000000       0.00000000       0.00000000      -0.59008735
La       0.00000000       0.00000000       2.64909091       0.00000000       0.00000000       0.59008735
2
Properties=species:S:1:pos:R:3:forces:R:3 energy=-4.883549410555308 pbc="F F F"
La       0.00000000       0.00000000       0.00000000       0.00000000       0.00000000       0.01967471
La       0.00000000       0.00000000       2.70787879       0.00000000       0.00000000      -0.01967471
2
Properties=species:S:1:pos:R:3:forces:R:3 energy=-4.868380656738875 pbc="F F F"
La       0.00000000       0.00000000       0.00000000       0.00000000       0.00000000       0.47257370
La       0.00000000       0.00000000       2.76666667       0.00000000       0.00000000      -0.47257370
2
Properties=species:S:1:pos:R:3:forces:R:3 energy=-4.830509718842749 pbc="F F F"
La       0.00000000       0.00000000       0.00000000       0.00000000       0.00000000       0.79666108
La       0.00000000       0.00000000       2.82545455       0.00000000       0.00000000      -0.79666108
2
Properties=species:S:1:pos:R:3:forces:R:3 energy=-4.776685533952832 pbc="F F F"
La       0.00000000       0.00000000       0.00000000       0.00000000       0.00000000       1.02012420
La       0.00000000       0.00000000       2.88424242       0.00000000       0.00000000      -1.02012420
2
Properties=species:S:1:pos:R:3:forces:R:3 energy=-4.7119799835429905 pbc="F F F"
La       0.00000000       0.00000000       0.00000000       0.00000000       0.00000000       1.17144156
La       0.00000000       0.00000000       2.94303030       0.00000000       0.00000000      -1.17144156
2
Properties=species:S:1:pos:R:3:forces:R:3 energy=-4.639854062806427 pbc="F F F"
La       0.00000000       0.00000000       0.00000000       0.00000000       0.00000000       1.27651465
La       0.00000000       0.00000000       3.00181818       0.00000000       0.00000000      -1.27651465
2
Properties=species:S:1:pos:R:3:forces:R:3 energy=-4.562395972789245 pbc="F F F"
La       0.00000000       0.00000000       0.00000000       0.00000000       0.00000000       1.35567200
La       0.00000000       0.00000000       3.06060606       0.00000000       0.00000000      -1.35567200
2
Properties=species:S:1:pos:R:3:forces:R:3 energy=-4.480709062776909 pbc="F F F"
La       0.00000000       0.00000000       0.00000000       0.00000000       0.00000000       1.42193508
La       0.00000000       0.00000000       3.11939394       0.00000000       0.00000000      -1.42193508
2
Properties=species:S:1:pos:R:3:forces:R:3 energy=-4.395350287405092 pbc="F F F"
La       0.00000000       0.00000000       0.00000000       0.00000000       0.00000000       1.48085570
La       0.00000000       0.00000000       3.17818182       0.00000000       0.00000000      -1.48085570
2
Properties=species:S:1:pos:R:3:forces:R:3 energy=-4.306744010630441 pbc="F F F"
La       0.00000000       0.00000000       0.00000000       0.00000000       0.00000000       1.53210485
La       0.00000000       0.00000000       3.23696970       0.00000000       0.00000000      -1.53210485
2
Properties=species:S:1:pos:R:3:forces:R:3 energy=-4.215426283756206 pbc="F F F"
La       0.00000000       0.00000000       0.00000000       0.00000000       0.00000000       1.57246351
La       0.00000000       0.00000000       3.29575758       0.00000000       0.00000000      -1.57246351
2
Properties=species:S:1:pos:R:3:forces:R:3 energy=-4.122136158436583 pbc="F F F"
La       0.00000000       0.00000000       0.00000000       0.00000000       0.00000000       1.59884739
La       0.00000000       0.00000000       3.35454545       0.00000000       0.00000000      -1.59884739
2
Properties=species:S:1:pos:R:3:forces:R:3 energy=-4.027739404763278 pbc="F F F"
La       0.00000000       0.00000000       0.00000000       0.00000000       0.00000000       1.61005497
La       0.00000000       0.00000000       3.41333333       0.00000000       0.00000000      -1.61005497
2
Properties=species:S:1:pos:R:3:forces:R:3 energy=-3.9331118392416546 pbc="F F F"
La       0.00000000       0.00000000       0.00000000       0.00000000       0.00000000       1.60701048
La       0.00000000       0.00000000       3.47212121       0.00000000       0.00000000      -1.60701048
2
Properties=species:S:1:pos:R:3:forces:R:3 energy=-3.8390260623026 pbc="F F F"
La       0.00000000       0.00000000       0.00000000       0.00000000       0.00000000       1.59213912
La       0.00000000       0.00000000       3.53090909       0.00000000       0.00000000      -1.59213912
2
Properties=species:S:1:pos:R:3:forces:R:3 energy=-3.7460848857931626 pbc="F F F"
La       0.00000000       0.00000000       0.00000000       0.00000000       0.00000000       1.56861389
La       0.00000000       0.00000000       3.58969697       0.00000000       0.00000000      -1.56861389
2
Properties=species:S:1:pos:R:3:forces:R:3 energy=-3.6546946235967037 pbc="F F F"
La       0.00000000       0.00000000       0.00000000       0.00000000       0.00000000       1.54003978
La       0.00000000       0.00000000       3.64848485       0.00000000       0.00000000      -1.54003978
2
Properties=species:S:1:pos:R:3:forces:R:3 energy=-3.5650322204831126 pbc="F F F"
La       0.00000000       0.00000000       0.00000000       0.00000000       0.00000000       1.51056480
La       0.00000000       0.00000000       3.70727273       0.00000000       0.00000000      -1.51056480
2
Properties=species:S:1:pos:R:3:forces:R:3 energy=-3.477014324363664 pbc="F F F"
La       0.00000000       0.00000000       0.00000000       0.00000000       0.00000000       1.48479426
La       0.00000000       0.00000000       3.76606061       0.00000000       0.00000000      -1.48479426
2
Properties=species:S:1:pos:R:3:forces:R:3 energy=-3.3903064691505587 pbc="F F F"
La       0.00000000       0.00000000       0.00000000       0.00000000       0.00000000       1.46653438
La       0.00000000       0.00000000       3.82484848       0.00000000       0.00000000      -1.46653438
2
Properties=species:S:1:pos:R:3:forces:R:3 energy=-3.3044299269171633 pbc="F F F"
La       0.00000000       0.00000000       0.00000000       0.00000000       0.00000000       1.45603085
La       0.00000000       0.00000000       3.88363636       0.00000000       0.00000000      -1.45603085
2
Properties=species:S:1:pos:R:3:forces:R:3 energy=-3.2190654876602305 pbc="F F F"
La       0.00000000       0.00000000       0.00000000       0.00000000       0.00000000       1.44777441
La       0.00000000       0.00000000       3.94242424       0.00000000       0.00000000      -1.44777441
2
Properties=species:S:1:pos:R:3:forces:R:3 energy=-3.1343421258831636 pbc="F F F"
La       0.00000000       0.00000000       0.00000000       0.00000000       0.00000000       1.43278992
La       0.00000000       0.00000000       4.00121212       0.00000000       0.00000000      -1.43278992
2
Properties=species:S:1:pos:R:3:forces:R:3 energy=-3.05086217107466 pbc="F F F"
La       0.00000000       0.00000000       0.00000000       0.00000000       0.00000000       1.40491641
La       0.00000000       0.00000000       4.06000000       0.00000000       0.00000000      -1.40491641
2
Properties=species:S:1:pos:R:3:forces:R:3 energy=-2.969407220243117 pbc="F F F"
La       0.00000000       0.00000000       0.00000000       0.00000000       0.00000000       1.36451185
La       0.00000000       0.00000000       4.11878788       0.00000000       0.00000000      -1.36451185
2
Properties=species:S:1:pos:R:3:forces:R:3 energy=-2.8905778793765275 pbc="F F F"
La       0.00000000       0.00000000       0.00000000       0.00000000       0.00000000       1.31648469
La       0.00000000       0.00000000       4.17757576       0.00000000       0.00000000      -1.31648469
2
Properties=species:S:1:pos:R:3:forces:R:3 energy=-2.8146601990041358 pbc="F F F"
La       0.00000000       0.00000000       0.00000000       0.00000000       0.00000000       1.26628172
La       0.00000000       0.00000000       4.23636364       0.00000000       0.00000000      -1.26628172
2
Properties=species:S:1:pos:R:3:forces:R:3 energy=-2.7416659204399196 pbc="F F F"
La       0.00000000       0.00000000       0.00000000       0.00000000       0.00000000       1.21737051
La       0.00000000       0.00000000       4.29515152       0.00000000       0.00000000      -1.21737051
2
Properties=species:S:1:pos:R:3:forces:R:3 energy=-2.6714768029591354 pbc="F F F"
La       0.00000000       0.00000000       0.00000000       0.00000000       0.00000000       1.17100692
La       0.00000000       0.00000000       4.35393939       0.00000000       0.00000000      -1.17100692
2
Properties=species:S:1:pos:R:3:forces:R:3 energy=-2.6039357643050973 pbc="F F F"
La       0.00000000       0.00000000       0.00000000       0.00000000       0.00000000       1.12720728
La       0.00000000       0.00000000       4.41272727       0.00000000       0.00000000      -1.12720728
2
Properties=species:S:1:pos:R:3:forces:R:3 energy=-2.5388920243273474 pbc="F F F"
La       0.00000000       0.00000000       0.00000000       0.00000000       0.00000000       1.08608341
La       0.00000000       0.00000000       4.47151515       0.00000000       0.00000000      -1.08608341
2
Properties=species:S:1:pos:R:3:forces:R:3 energy=-2.4761636506757663 pbc="F F F"
La       0.00000000       0.00000000       0.00000000       0.00000000       0.00000000       1.04873538
La       0.00000000       0.00000000       4.53030303       0.00000000       0.00000000      -1.04873538
2
Properties=species:S:1:pos:R:3:forces:R:3 energy=-2.4154679872935603 pbc="F F F"
La       0.00000000       0.00000000       0.00000000       0.00000000       0.00000000       1.01746333
La       0.00000000       0.00000000       4.58909091       0.00000000       0.00000000      -1.01746333
2
Properties=species:S:1:pos:R:3:forces:R:3 energy=-2.3563589760259043 pbc="F F F"
La       0.00000000       0.00000000       0.00000000       0.00000000       0.00000000       0.99524558
La       0.00000000       0.00000000       4.64787879       0.00000000       0.00000000      -0.99524558
2
Properties=species:S:1:pos:R:3:forces:R:3 energy=-2.298221781370641 pbc="F F F"
La       0.00000000       0.00000000       0.00000000       0.00000000       0.00000000       0.98463619
La       0.00000000       0.00000000       4.70666667       0.00000000       0.00000000      -0.98463619
2
Properties=species:S:1:pos:R:3:forces:R:3 energy=-2.240342083921685 pbc="F F F"
La       0.00000000       0.00000000       0.00000000       0.00000000       0.00000000       0.98655999
La       0.00000000       0.00000000       4.76545455       0.00000000       0.00000000      -0.98655999
2
Properties=species:S:1:pos:R:3:forces:R:3 energy=-2.182010337316342 pbc="F F F"
La       0.00000000       0.00000000       0.00000000       0.00000000       0.00000000       0.99927968
La       0.00000000       0.00000000       4.82424242       0.00000000       0.00000000      -0.99927968
2
Properties=species:S:1:pos:R:3:forces:R:3 energy=-2.12273573507081 pbc="F F F"
La       0.00000000       0.00000000       0.00000000       0.00000000       0.00000000       1.01791906
La       0.00000000       0.00000000       4.88303030       0.00000000       0.00000000      -1.01791906
2
Properties=species:S:1:pos:R:3:forces:R:3 energy=-2.0623604764360137 pbc="F F F"
La       0.00000000       0.00000000       0.00000000       0.00000000       0.00000000       1.03496289
La       0.00000000       0.00000000       4.94181818       0.00000000       0.00000000      -1.03496289
2
Properties=species:S:1:pos:R:3:forces:R:3 energy=-2.0012405573726495 pbc="F F F"
La       0.00000000       0.00000000       0.00000000       0.00000000       0.00000000       1.04224300
La       0.00000000       0.00000000       5.00060606       0.00000000       0.00000000      -1.04224300
2
Properties=species:S:1:pos:R:3:forces:R:3 energy=-1.9400947969057203 pbc="F F F"
La       0.00000000       0.00000000       0.00000000       0.00000000       0.00000000       1.03563297
La       0.00000000       0.00000000       5.05939394       0.00000000       0.00000000      -1.03563297
2
Properties=species:S:1:pos:R:3:forces:R:3 energy=-1.8796264138184426 pbc="F F F"
La       0.00000000       0.00000000       0.00000000       0.00000000       0.00000000       1.02179432
La       0.00000000       0.00000000       5.11818182       0.00000000       0.00000000      -1.02179432
2
Properties=species:S:1:pos:R:3:forces:R:3 energy=-1.8197199971998708 pbc="F F F"
La       0.00000000       0.00000000       0.00000000       0.00000000       0.00000000       1.02027917
La       0.00000000       0.00000000       5.17696970       0.00000000       0.00000000      -1.02027917
2
Properties=species:S:1:pos:R:3:forces:R:3 energy=-1.7590581610479237 pbc="F F F"
La       0.00000000       0.00000000       0.00000000       0.00000000       0.00000000       1.04881585
La       0.00000000       0.00000000       5.23575758       0.00000000       0.00000000      -1.04881585
2
Properties=species:S:1:pos:R:3:forces:R:3 energy=-1.696039246722663 pbc="F F F"
La       0.00000000       0.00000000       0.00000000       0.00000000       0.00000000       1.09460902
La       0.00000000       0.00000000       5.29454545       0.00000000       0.00000000      -1.09460902
2
Properties=species:S:1:pos:R:3:forces:R:3 energy=-1.6309547641512676 pbc="F F F"
La       0.00000000       0.00000000       0.00000000       0.00000000       0.00000000       1.11019683
La       0.00000000       0.00000000       5.35333333       0.00000000       0.00000000      -1.11019683
2
Properties=species:S:1:pos:R:3:forces:R:3 energy=-1.5668198710952252 pbc="F F F"
La       0.00000000       0.00000000       0.00000000       0.00000000       0.00000000       1.06139755
La       0.00000000       0.00000000       5.41212121       0.00000000       0.00000000      -1.06139755
2
Properties=species:S:1:pos:R:3:forces:R:3 energy=-1.5068203236488724 pbc="F F F"
La       0.00000000       0.00000000       0.00000000       0.00000000       0.00000000       0.98113728
La       0.00000000       0.00000000       5.47090909       0.00000000       0.00000000      -0.98113728
2
Properties=species:S:1:pos:R:3:forces:R:3 energy=-1.4501897991903676 pbc="F F F"
La       0.00000000       0.00000000       0.00000000       0.00000000       0.00000000       0.96522850
La       0.00000000       0.00000000       5.52969697       0.00000000       0.00000000      -0.96522850
2
Properties=species:S:1:pos:R:3:forces:R:3 energy=-1.390277135995319 pbc="F F F"
La       0.00000000       0.00000000       0.00000000       0.00000000       0.00000000       1.10135376
La       0.00000000       0.00000000       5.58848485       0.00000000       0.00000000      -1.10135376
2
Properties=species:S:1:pos:R:3:forces:R:3 energy=-1.3181394952929153 pbc="F F F"
La       0.00000000       0.00000000       0.00000000       0.00000000       0.00000000       1.36454248
La       0.00000000       0.00000000       5.64727273       0.00000000       0.00000000      -1.36454248
2
Properties=species:S:1:pos:R:3:forces:R:3 energy=-1.2308283467247803 pbc="F F F"
La       0.00000000       0.00000000       0.00000000       0.00000000       0.00000000       1.57610464
La       0.00000000       0.00000000       5.70606061       0.00000000       0.00000000      -1.57610464
2
Properties=species:S:1:pos:R:3:forces:R:3 energy=-1.1379442481517204 pbc="F F F"
La       0.00000000       0.00000000       0.00000000       0.00000000       0.00000000       1.52190399
La       0.00000000       0.00000000       5.76484848       0.00000000       0.00000000      -1.52190399
2
Properties=species:S:1:pos:R:3:forces:R:3 energy=-1.0581825105668166 pbc="F F F"
La       0.00000000       0.00000000       0.00000000       0.00000000       0.00000000       1.14913607
La       0.00000000       0.00000000       5.82363636       0.00000000       0.00000000      -1.14913607
2
Properties=species:S:1:pos:R:3:forces:R:3 energy=-1.006074810851615 pbc="F F F"
La       0.00000000       0.00000000       0.00000000       0.00000000       0.00000000       0.62646306
La       0.00000000       0.00000000       5.88242424       0.00000000       0.00000000      -0.62646306
2
Properties=species:S:1:pos:R:3:forces:R:3 energy=-0.9826392075551849 pbc="F F F"
La       0.00000000       0.00000000       0.00000000       0.00000000       0.00000000       0.20021652
La       0.00000000       0.00000000       5.94121212       0.00000000       0.00000000      -0.20021652
2
Properties=species:S:1:pos:R:3:forces:R:3 energy=-0.9771897102310176 pbc="F F F"
La       0.00000000       0.00000000       0.00000000       0.00000000       0.00000000       0.03887901
La       0.00000000       0.00000000       6.00000000       0.00000000       0.00000000      -0.03887901
