2
Properties=species:S:1:pos:R:3:forces:R:3 energy=3220.9825167723975 pbc="F F F"
Mn       0.00000000       0.00000000       0.00000000       0.00000000       0.00000000  -49471.76171875
Mn       0.00000000       0.00000000       0.18000000       0.00000000       0.00000000   49471.76171875
2
Properties=species:S:1:pos:R:3:forces:R:3 energy=1415.9371066161475 pbc="F F F"
Mn       0.00000000       0.00000000       0.00000000       0.00000000       0.00000000  -18125.21679688
Mn       0.00000000       0.00000000       0.23878788       0.00000000       0.00000000   18125.21679688
2
Properties=species:S:1:pos:R:3:forces:R:3 energy=703.3229098388038 pbc="F F F"
Mn       0.00000000       0.00000000       0.00000000       0.00000000       0.00000000   -7807.40332031
Mn       0.00000000       0.00000000       0.29757576       0.00000000       0.00000000    7807.40332031
2
Properties=species:S:1:pos:R:3:forces:R:3 energy=380.96521330876845 pbc="F F F"
Mn       0.00000000       0.00000000       0.00000000       0.00000000       0.00000000   -3732.60034180
Mn       0.00000000       0.00000000       0.35636364       0.00000000       0.00000000    3732.60034180
2
Properties=species:S:1:pos:R:3:forces:R:3 energy=221.68196441056907 pbc="F F F"
Mn       0.00000000       0.00000000       0.00000000       0.00000000       0.00000000   -1913.26806641
Mn       0.00000000       0.00000000       0.41515152       0.00000000       0.00000000    1913.26806641
2
Properties=species:S:1:pos:R:3:forces:R:3 energy=138.14352753359194 pbc="F F F"
Mn       0.00000000       0.00000000       0.00000000       0.00000000       0.00000000   -1028.94958496
Mn       0.00000000       0.00000000       0.47393939       0.00000000       0.00000000    1028.94958496
2
Properties=species:S:1:pos:R:3:forces:R:3 energy=92.51076845836057 pbc="F F F"
Mn       0.00000000       0.00000000       0.00000000       0.00000000       0.00000000    -571.26159668
Mn       0.00000000       0.00000000       0.53272727       0.00000000       0.00000000     571.26159668
2
Properties=species:S:1:pos:R:3:forces:R:3 energy=66.95223578153069 pbc="F F F"
Mn       0.00000000       0.00000000       0.00000000       0.00000000       0.00000000    -322.57330322
Mn       0.00000000       0.00000000       0.59151515       0.00000000       0.00000000     322.57330322
2
Properties=species:S:1:pos:R:3:forces:R:3 energy=52.46335949261024 pbc="F F F"
Mn       0.00000000       0.00000000       0.00000000       0.00000000       0.00000000    -183.65875244
Mn       0.00000000       0.00000000       0.65030303       0.00000000       0.00000000     183.65875244
2
Properties=species:S:1:pos:R:3:forces:R:3 energy=44.16901753712581 pbc="F F F"
Mn       0.00000000       0.00000000       0.00000000       0.00000000       0.00000000    -106.15538025
Mn       0.00000000       0.00000000       0.70909091       0.00000000       0.00000000     106.15538025
2
Properties=species:S:1:pos:R:3:forces:R:3 energy=39.276409030764036 pbc="F F F"
Mn       0.00000000       0.00000000       0.00000000       0.00000000       0.00000000     -65.06945801
Mn       0.00000000       0.00000000       0.76787879       0.00000000       0.00000000      65.06945801
2
Properties=species:S:1:pos:R:3:forces:R:3 energy=36.053768239125894 pbc="F F F"
Mn       0.00000000       0.00000000       0.00000000       0.00000000       0.00000000     -47.87397003
Mn       0.00000000       0.00000000       0.82666667       0.00000000       0.00000000      47.87397003
2
Properties=species:S:1:pos:R:3:forces:R:3 energy=33.31321371149175 pbc="F F F"
Mn       0.00000000       0.00000000       0.00000000       0.00000000       0.00000000     -47.81270599
Mn       0.00000000       0.00000000       0.88545455       0.00000000       0.00000000      47.81270599
2
Properties=species:S:1:pos:R:3:forces:R:3 energy=30.18754844913231 pbc="F F F"
Mn       0.00000000       0.00000000       0.00000000       0.00000000       0.00000000     -60.20092010
Mn       0.00000000       0.00000000       0.94424242       0.00000000       0.00000000      60.20092010
2
Properties=species:S:1:pos:R:3:forces:R:3 energy=26.095576642923504 pbc="F F F"
Mn       0.00000000       0.00000000       0.00000000       0.00000000       0.00000000     -79.62406158
Mn       0.00000000       0.00000000       1.00303030       0.00000000       0.00000000      79.62406158
2
Properties=species:S:1:pos:R:3:forces:R:3 energy=20.837200308998572 pbc="F F F"
Mn       0.00000000       0.00000000       0.00000000       0.00000000       0.00000000     -98.37316895
Mn       0.00000000       0.00000000       1.06181818       0.00000000       0.00000000      98.37316895
2
Properties=species:S:1:pos:R:3:forces:R:3 energy=14.73122518628711 pbc="F F F"
Mn       0.00000000       0.00000000       0.00000000       0.00000000       0.00000000    -106.92586517
Mn       0.00000000       0.00000000       1.12060606       0.00000000       0.00000000     106.92586517
2
Properties=species:S:1:pos:R:3:forces:R:3 energy=8.595634968632718 pbc="F F F"
Mn       0.00000000       0.00000000       0.00000000       0.00000000       0.00000000     -98.92670441
Mn       0.00000000       0.00000000       1.17939394       0.00000000       0.00000000      98.92670441
2
Properties=species:S:1:pos:R:3:forces:R:3 energy=3.3733427779795795 pbc="F F F"
Mn       0.00000000       0.00000000       0.00000000       0.00000000       0.00000000     -77.47971344
Mn       0.00000000       0.00000000       1.23818182       0.00000000       0.00000000      77.47971344
2
Properties=species:S:1:pos:R:3:forces:R:3 energy=-0.5281777296575115 pbc="F F F"
Mn       0.00000000       0.00000000       0.00000000       0.00000000       0.00000000     -56.40051270
Mn       0.00000000       0.00000000       1.29696970       0.00000000       0.00000000      56.40051270
2
Properties=species:S:1:pos:R:3:forces:R:3 energy=-3.410920302969379 pbc="F F F"
Mn       0.00000000       0.00000000       0.00000000       0.00000000       0.00000000     -42.73307800
Mn       0.00000000       0.00000000       1.35575758       0.00000000       0.00000000      42.73307800
2
Properties=species:S:1:pos:R:3:forces:R:3 energy=-5.634735237728977 pbc="F F F"
Mn       0.00000000       0.00000000       0.00000000       0.00000000       0.00000000     -33.33334351
Mn       0.00000000       0.00000000       1.41454545       0.00000000       0.00000000      33.33334351
2
Properties=species:S:1:pos:R:3:forces:R:3 energy=-7.357389216720197 pbc="F F F"
Mn       0.00000000       0.00000000       0.00000000       0.00000000       0.00000000     -25.37878799
Mn       0.00000000       0.00000000       1.47333333       0.00000000       0.00000000      25.37878799
2
Properties=species:S:1:pos:R:3:forces:R:3 energy=-8.625514387277516 pbc="F F F"
Mn       0.00000000       0.00000000       0.00000000       0.00000000       0.00000000     -17.82546616
Mn       0.00000000       0.00000000       1.53212121       0.00000000       0.00000000      17.82546616
2
Properties=species:S:1:pos:R:3:forces:R:3 energy=-9.466832981391663 pbc="F F F"
Mn       0.00000000       0.00000000       0.00000000       0.00000000       0.00000000     -10.96984196
Mn       0.00000000       0.00000000       1.59090909       0.00000000       0.00000000      10.96984196
2
Properties=species:S:1:pos:R:3:forces:R:3 energy=-9.940755943413667 pbc="F F F"
Mn       0.00000000       0.00000000       0.00000000       0.00000000       0.00000000      -5.41661596
Mn       0.00000000       0.00000000       1.64969697       0.00000000       0.00000000       5.41661596
2
Properties=species:S:1:pos:R:3:forces:R:3 energy=-10.14153396819875 pbc="F F F"
Mn       0.00000000       0.00000000       0.00000000       0.00000000       0.00000000      -1.77326262
Mn       0.00000000       0.00000000       1.70848485       0.00000000       0.00000000       1.77326262
2
Properties=species:S:1:pos:R:3:forces:R:3 energy=-10.188302177280743 pbc="F F F"
Mn       0.00000000       0.00000000       0.00000000       0.00000000       0.00000000      -0.09225697
Mn       0.00000000       0.00000000       1.76727273       0.00000000       0.00000000       0.09225697
2
Properties=species:S:1:pos:R:3:forces:R:3 energy=-10.177129694193214 pbc="F F F"
Mn       0.00000000       0.00000000       0.00000000       0.00000000       0.00000000       0.31522813
Mn       0.00000000       0.00000000       1.82606061       0.00000000       0.00000000      -0.31522813
2
Properties=species:S:1:pos:R:3:forces:R:3 energy=-10.16532916089167 pbc="F F F"
Mn       0.00000000       0.00000000       0.00000000       0.00000000       0.00000000      -0.00299492
Mn       0.00000000       0.00000000       1.88484848       0.00000000       0.00000000       0.00299492
2
Properties=species:S:1:pos:R:3:forces:R:3 energy=-10.184812708808316 pbc="F F F"
Mn       0.00000000       0.00000000       0.00000000       0.00000000       0.00000000      -0.69564652
Mn       0.00000000       0.00000000       1.94363636       0.00000000       0.00000000       0.69564652
2
Properties=species:S:1:pos:R:3:forces:R:3 energy=-10.248367230728828 pbc="F F F"
Mn       0.00000000       0.00000000       0.00000000       0.00000000       0.00000000      -1.45428741
Mn       0.00000000       0.00000000       2.00242424       0.00000000       0.00000000       1.45428741
2
Properties=species:S:1:pos:R:3:forces:R:3 energy=-10.35235023719927 pbc="F F F"
Mn       0.00000000       0.00000000       0.00000000       0.00000000       0.00000000      -2.04132390
Mn       0.00000000       0.00000000       2.06121212       0.00000000       0.00000000       2.04132390
2
Properties=species:S:1:pos:R:3:forces:R:3 energy=-10.48272932026905 pbc="F F F"
Mn       0.00000000       0.00000000       0.00000000       0.00000000       0.00000000      -2.34408784
Mn       0.00000000       0.00000000       2.12000000       0.00000000       0.00000000       2.34408784
2
Properties=species:S:1:pos:R:3:forces:R:3 energy=-10.622365290586172 pbc="F F F"
Mn       0.00000000       0.00000000       0.00000000       0.00000000       0.00000000      -2.36393070
Mn       0.00000000       0.00000000       2.17878788       0.00000000       0.00000000       2.36393070
2
Properties=species:S:1:pos:R:3:forces:R:3 energy=-10.75655858105604 pbc="F F F"
Mn       0.00000000       0.00000000       0.00000000       0.00000000       0.00000000      -2.17449474
Mn       0.00000000       0.00000000       2.23757576       0.00000000       0.00000000       2.17449474
2
Properties=species:S:1:pos:R:3:forces:R:3 energy=-10.875798959610925 pbc="F F F"
Mn       0.00000000       0.00000000       0.00000000       0.00000000       0.00000000      -1.87045896
Mn       0.00000000       0.00000000       2.29636364       0.00000000       0.00000000       1.87045896
2
Properties=species:S:1:pos:R:3:forces:R:3 energy=-10.97582632419277 pbc="F F F"
Mn       0.00000000       0.00000000       0.00000000       0.00000000       0.00000000      -1.53234339
Mn       0.00000000       0.00000000       2.35515152       0.00000000       0.00000000       1.53234339
2
Properties=species:S:1:pos:R:3:forces:R:3 energy=-11.0564341271128 pbc="F F F"
Mn       0.00000000       0.00000000       0.00000000       0.00000000       0.00000000      -1.21741641
Mn       0.00000000       0.00000000       2.41393939       0.00000000       0.00000000       1.21741641
2
Properties=species:S:1:pos:R:3:forces:R:3 energy=-11.120140428473919 pbc="F F F"
Mn       0.00000000       0.00000000       0.00000000       0.00000000       0.00000000      -0.96185130
Mn       0.00000000       0.00000000       2.47272727       0.00000000       0.00000000       0.96185130
2
Properties=species:S:1:pos:R:3:forces:R:3 energy=-11.171066359755475 pbc="F F F"
Mn       0.00000000       0.00000000       0.00000000       0.00000000       0.00000000      -0.78434098
Mn       0.00000000       0.00000000       2.53151515       0.00000000       0.00000000       0.78434098
2
Properties=species:S:1:pos:R:3:forces:R:3 energy=-11.21382045951009 pbc="F F F"
Mn       0.00000000       0.00000000       0.00000000       0.00000000       0.00000000      -0.67924511
Mn       0.00000000       0.00000000       2.59030303       0.00000000       0.00000000       0.67924511
2
Properties=species:S:1:pos:R:3:forces:R:3 energy=-11.251070142606562 pbc="F F F"
Mn       0.00000000       0.00000000       0.00000000       0.00000000       0.00000000      -0.57912219
Mn       0.00000000       0.00000000       2.64909091       0.00000000       0.00000000       0.57912219
2
Properties=species:S:1:pos:R:3:forces:R:3 energy=-11.280041869961503 pbc="F F F"
Mn       0.00000000       0.00000000       0.00000000       0.00000000       0.00000000      -0.39038932
Mn       0.00000000       0.00000000       2.70787879       0.00000000       0.00000000       0.39038932
2
Properties=species:S:1:pos:R:3:forces:R:3 energy=-11.296129587357866 pbc="F F F"
Mn       0.00000000       0.00000000       0.00000000       0.00000000       0.00000000      -0.15980217
Mn       0.00000000       0.00000000       2.76666667       0.00000000       0.00000000       0.15980217
2
Properties=species:S:1:pos:R:3:forces:R:3 energy=-11.29980216829635 pbc="F F F"
Mn       0.00000000       0.00000000       0.00000000       0.00000000       0.00000000       0.02484678
Mn       0.00000000       0.00000000       2.82545455       0.00000000       0.00000000      -0.02484678
2
Properties=species:S:1:pos:R:3:forces:R:3 energy=-11.294261814140269 pbc="F F F"
Mn       0.00000000       0.00000000       0.00000000       0.00000000       0.00000000       0.15611264
Mn       0.00000000       0.00000000       2.88424242       0.00000000       0.00000000      -0.15611264
2
Properties=species:S:1:pos:R:3:forces:R:3 energy=-11.282204074066312 pbc="F F F"
Mn       0.00000000       0.00000000       0.00000000       0.00000000       0.00000000       0.24838428
Mn       0.00000000       0.00000000       2.94303030       0.00000000       0.00000000      -0.24838428
2
Properties=species:S:1:pos:R:3:forces:R:3 energy=-11.265679693594057 pbc="F F F"
Mn       0.00000000       0.00000000       0.00000000       0.00000000       0.00000000       0.30885065
Mn       0.00000000       0.00000000       3.00181818       0.00000000       0.00000000      -0.30885065
2
Properties=species:S:1:pos:R:3:forces:R:3 energy=-11.24642544321346 pbc="F F F"
Mn       0.00000000       0.00000000       0.00000000       0.00000000       0.00000000       0.34212273
Mn       0.00000000       0.00000000       3.06060606       0.00000000       0.00000000      -0.34212273
2
Properties=species:S:1:pos:R:3:forces:R:3 energy=-11.225862885664409 pbc="F F F"
Mn       0.00000000       0.00000000       0.00000000       0.00000000       0.00000000       0.35462812
Mn       0.00000000       0.00000000       3.11939394       0.00000000       0.00000000      -0.35462812
2
Properties=species:S:1:pos:R:3:forces:R:3 energy=-11.20497683386525 pbc="F F F"
Mn       0.00000000       0.00000000       0.00000000       0.00000000       0.00000000       0.35452187
Mn       0.00000000       0.00000000       3.17818182       0.00000000       0.00000000      -0.35452187
2
Properties=species:S:1:pos:R:3:forces:R:3 energy=-11.18427109331271 pbc="F F F"
Mn       0.00000000       0.00000000       0.00000000       0.00000000       0.00000000       0.34967157
Mn       0.00000000       0.00000000       3.23696970       0.00000000       0.00000000      -0.34967157
2
Properties=species:S:1:pos:R:3:forces:R:3 energy=-11.163842267208762 pbc="F F F"
Mn       0.00000000       0.00000000       0.00000000       0.00000000       0.00000000       0.34583423
Mn       0.00000000       0.00000000       3.29575758       0.00000000       0.00000000      -0.34583423
2
Properties=species:S:1:pos:R:3:forces:R:3 energy=-11.143529853483962 pbc="F F F"
Mn       0.00000000       0.00000000       0.00000000       0.00000000       0.00000000       0.34596461
Mn       0.00000000       0.00000000       3.35454545       0.00000000       0.00000000      -0.34596461
2
Properties=species:S:1:pos:R:3:forces:R:3 energy=-11.12307565713606 pbc="F F F"
Mn       0.00000000       0.00000000       0.00000000       0.00000000       0.00000000       0.35061651
Mn       0.00000000       0.00000000       3.41333333       0.00000000       0.00000000      -0.35061651
2
Properties=species:S:1:pos:R:3:forces:R:3 energy=-11.102234942309192 pbc="F F F"
Mn       0.00000000       0.00000000       0.00000000       0.00000000       0.00000000       0.35888696
Mn       0.00000000       0.00000000       3.47212121       0.00000000       0.00000000      -0.35888696
2
Properties=species:S:1:pos:R:3:forces:R:3 energy=-11.080837765225409 pbc="F F F"
Mn       0.00000000       0.00000000       0.00000000       0.00000000       0.00000000       0.36927131
Mn       0.00000000       0.00000000       3.53090909       0.00000000       0.00000000      -0.36927131
2
Properties=species:S:1:pos:R:3:forces:R:3 energy=-11.058808212397757 pbc="F F F"
Mn       0.00000000       0.00000000       0.00000000       0.00000000       0.00000000       0.38012949
Mn       0.00000000       0.00000000       3.58969697       0.00000000       0.00000000      -0.38012949
2
Properties=species:S:1:pos:R:3:forces:R:3 energy=-11.036166333321482 pbc="F F F"
Mn       0.00000000       0.00000000       0.00000000       0.00000000       0.00000000       0.38982159
Mn       0.00000000       0.00000000       3.64848485       0.00000000       0.00000000      -0.38982159
2
Properties=species:S:1:pos:R:3:forces:R:3 energy=-11.013029379252352 pbc="F F F"
Mn       0.00000000       0.00000000       0.00000000       0.00000000       0.00000000       0.39672938
Mn       0.00000000       0.00000000       3.70727273       0.00000000       0.00000000      -0.39672938
2
Properties=species:S:1:pos:R:3:forces:R:3 energy=-10.989604154805178 pbc="F F F"
Mn       0.00000000       0.00000000       0.00000000       0.00000000       0.00000000       0.39936650
Mn       0.00000000       0.00000000       3.76606061       0.00000000       0.00000000      -0.39936650
2
Properties=species:S:1:pos:R:3:forces:R:3 energy=-10.966179439244447 pbc="F F F"
Mn       0.00000000       0.00000000       0.00000000       0.00000000       0.00000000       0.39660105
Mn       0.00000000       0.00000000       3.82484848       0.00000000       0.00000000      -0.39660105
2
Properties=species:S:1:pos:R:3:forces:R:3 energy=-10.94308989891576 pbc="F F F"
Mn       0.00000000       0.00000000       0.00000000       0.00000000       0.00000000       0.38789564
Mn       0.00000000       0.00000000       3.88363636       0.00000000       0.00000000      -0.38789564
2
Properties=species:S:1:pos:R:3:forces:R:3 energy=-10.920684615993386 pbc="F F F"
Mn       0.00000000       0.00000000       0.00000000       0.00000000       0.00000000       0.37346473
Mn       0.00000000       0.00000000       3.94242424       0.00000000       0.00000000      -0.37346473
2
Properties=species:S:1:pos:R:3:forces:R:3 energy=-10.899274585707712 pbc="F F F"
Mn       0.00000000       0.00000000       0.00000000       0.00000000       0.00000000       0.35425490
Mn       0.00000000       0.00000000       4.00121212       0.00000000       0.00000000      -0.35425490
2
Properties=species:S:1:pos:R:3:forces:R:3 energy=-10.879097468409396 pbc="F F F"
Mn       0.00000000       0.00000000       0.00000000       0.00000000       0.00000000       0.33176062
Mn       0.00000000       0.00000000       4.06000000       0.00000000       0.00000000      -0.33176062
2
Properties=species:S:1:pos:R:3:forces:R:3 energy=-10.860297524394861 pbc="F F F"
Mn       0.00000000       0.00000000       0.00000000       0.00000000       0.00000000       0.30773115
Mn       0.00000000       0.00000000       4.11878788       0.00000000       0.00000000      -0.30773115
2
Properties=species:S:1:pos:R:3:forces:R:3 energy=-10.84291305774907 pbc="F F F"
Mn       0.00000000       0.00000000       0.00000000       0.00000000       0.00000000       0.28384793
Mn       0.00000000       0.00000000       4.17757576       0.00000000       0.00000000      -0.28384793
2
Properties=species:S:1:pos:R:3:forces:R:3 energy=-10.826893525462431 pbc="F F F"
Mn       0.00000000       0.00000000       0.00000000       0.00000000       0.00000000       0.26146024
Mn       0.00000000       0.00000000       4.23636364       0.00000000       0.00000000      -0.26146024
2
Properties=species:S:1:pos:R:3:forces:R:3 energy=-10.81212416823626 pbc="F F F"
Mn       0.00000000       0.00000000       0.00000000       0.00000000       0.00000000       0.24143329
Mn       0.00000000       0.00000000       4.29515152       0.00000000       0.00000000      -0.24143329
2
Properties=species:S:1:pos:R:3:forces:R:3 energy=-10.798453552996364 pbc="F F F"
Mn       0.00000000       0.00000000       0.00000000       0.00000000       0.00000000       0.22413237
Mn       0.00000000       0.00000000       4.35393939       0.00000000       0.00000000      -0.22413237
2
Properties=species:S:1:pos:R:3:forces:R:3 energy=-10.785719952656047 pbc="F F F"
Mn       0.00000000       0.00000000       0.00000000       0.00000000       0.00000000       0.20948996
Mn       0.00000000       0.00000000       4.41272727       0.00000000       0.00000000      -0.20948996
2
Properties=species:S:1:pos:R:3:forces:R:3 energy=-10.773777101658295 pbc="F F F"
Mn       0.00000000       0.00000000       0.00000000       0.00000000       0.00000000       0.19714874
Mn       0.00000000       0.00000000       4.47151515       0.00000000       0.00000000      -0.19714874
2
Properties=species:S:1:pos:R:3:forces:R:3 energy=-10.762505272600196 pbc="F F F"
Mn       0.00000000       0.00000000       0.00000000       0.00000000       0.00000000       0.18658319
Mn       0.00000000       0.00000000       4.53030303       0.00000000       0.00000000      -0.18658319
2
Properties=species:S:1:pos:R:3:forces:R:3 energy=-10.75181691591547 pbc="F F F"
Mn       0.00000000       0.00000000       0.00000000       0.00000000       0.00000000       0.17719735
Mn       0.00000000       0.00000000       4.58909091       0.00000000       0.00000000      -0.17719735
2
Properties=species:S:1:pos:R:3:forces:R:3 energy=-10.741660309844983 pbc="F F F"
Mn       0.00000000       0.00000000       0.00000000       0.00000000       0.00000000       0.16838400
Mn       0.00000000       0.00000000       4.64787879       0.00000000       0.00000000      -0.16838400
2
Properties=species:S:1:pos:R:3:forces:R:3 energy=-10.732019370367416 pbc="F F F"
Mn       0.00000000       0.00000000       0.00000000       0.00000000       0.00000000       0.15954968
Mn       0.00000000       0.00000000       4.70666667       0.00000000       0.00000000      -0.15954968
2
Properties=species:S:1:pos:R:3:forces:R:3 energy=-10.722911610802102 pbc="F F F"
Mn       0.00000000       0.00000000       0.00000000       0.00000000       0.00000000       0.15015647
Mn       0.00000000       0.00000000       4.76545455       0.00000000       0.00000000      -0.15015647
2
Properties=species:S:1:pos:R:3:forces:R:3 energy=-10.714383367101798 pbc="F F F"
Mn       0.00000000       0.00000000       0.00000000       0.00000000       0.00000000       0.13978243
Mn       0.00000000       0.00000000       4.82424242       0.00000000       0.00000000      -0.13978243
2
Properties=species:S:1:pos:R:3:forces:R:3 energy=-10.706500115389707 pbc="F F F"
Mn       0.00000000       0.00000000       0.00000000       0.00000000       0.00000000       0.12823215
Mn       0.00000000       0.00000000       4.88303030       0.00000000       0.00000000      -0.12823215
2
Properties=species:S:1:pos:R:3:forces:R:3 energy=-10.699327354123634 pbc="F F F"
Mn       0.00000000       0.00000000       0.00000000       0.00000000       0.00000000       0.11563563
Mn       0.00000000       0.00000000       4.94181818       0.00000000       0.00000000      -0.11563563
2
Properties=species:S:1:pos:R:3:forces:R:3 energy=-10.692914407471722 pbc="F F F"
Mn       0.00000000       0.00000000       0.00000000       0.00000000       0.00000000       0.10251161
Mn       0.00000000       0.00000000       5.00060606       0.00000000       0.00000000      -0.10251161
2
Properties=species:S:1:pos:R:3:forces:R:3 energy=-10.687269727982715 pbc="F F F"
Mn       0.00000000       0.00000000       0.00000000       0.00000000       0.00000000       0.08959524
Mn       0.00000000       0.00000000       5.05939394       0.00000000       0.00000000      -0.08959524
2
Properties=species:S:1:pos:R:3:forces:R:3 energy=-10.682365531908998 pbc="F F F"
Mn       0.00000000       0.00000000       0.00000000       0.00000000       0.00000000       0.07741065
Mn       0.00000000       0.00000000       5.11818182       0.00000000       0.00000000      -0.07741065
2
Properties=species:S:1:pos:R:3:forces:R:3 energy=-10.678157015244933 pbc="F F F"
Mn       0.00000000       0.00000000       0.00000000       0.00000000       0.00000000       0.06578793
Mn       0.00000000       0.00000000       5.17696970       0.00000000       0.00000000      -0.06578793
2
Properties=species:S:1:pos:R:3:forces:R:3 energy=-10.674632062000729 pbc="F F F"
Mn       0.00000000       0.00000000       0.00000000       0.00000000       0.00000000       0.05410613
Mn       0.00000000       0.00000000       5.23575758       0.00000000       0.00000000      -0.05410613
2
Properties=species:S:1:pos:R:3:forces:R:3 energy=-10.67179495254351 pbc="F F F"
Mn       0.00000000       0.00000000       0.00000000       0.00000000       0.00000000       0.04255239
Mn       0.00000000       0.00000000       5.29454545       0.00000000       0.00000000      -0.04255239
2
Properties=species:S:1:pos:R:3:forces:R:3 energy=-10.669594112432453 pbc="F F F"
Mn       0.00000000       0.00000000       0.00000000       0.00000000       0.00000000       0.03276122
Mn       0.00000000       0.00000000       5.35333333       0.00000000       0.00000000      -0.03276122
2
Properties=species:S:1:pos:R:3:forces:R:3 energy=-10.667878251319806 pbc="F F F"
Mn       0.00000000       0.00000000       0.00000000       0.00000000       0.00000000       0.02616649
Mn       0.00000000       0.00000000       5.41212121       0.00000000       0.00000000      -0.02616649
2
Properties=species:S:1:pos:R:3:forces:R:3 energy=-10.666468875461055 pbc="F F F"
Mn       0.00000000       0.00000000       0.00000000       0.00000000       0.00000000       0.02201254
Mn       0.00000000       0.00000000       5.47090909       0.00000000       0.00000000      -0.02201254
2
Properties=species:S:1:pos:R:3:forces:R:3 energy=-10.665295858355496 pbc="F F F"
Mn       0.00000000       0.00000000       0.00000000       0.00000000       0.00000000       0.01757022
Mn       0.00000000       0.00000000       5.52969697       0.00000000       0.00000000      -0.01757022
2
Properties=species:S:1:pos:R:3:forces:R:3 energy=-10.6644651943883 pbc="F F F"
Mn       0.00000000       0.00000000       0.00000000       0.00000000       0.00000000       0.01004573
Mn       0.00000000       0.00000000       5.58848485       0.00000000       0.00000000      -0.01004573
2
Properties=species:S:1:pos:R:3:forces:R:3 energy=-10.66418084505391 pbc="F F F"
Mn       0.00000000       0.00000000       0.00000000       0.00000000       0.00000000      -0.00074930
Mn       0.00000000       0.00000000       5.64727273       0.00000000       0.00000000       0.00074930
2
Properties=species:S:1:pos:R:3:forces:R:3 energy=-10.66453689814366 pbc="F F F"
Mn       0.00000000       0.00000000       0.00000000       0.00000000       0.00000000      -0.01064011
Mn       0.00000000       0.00000000       5.70606061       0.00000000       0.00000000       0.01064011
2
Properties=species:S:1:pos:R:3:forces:R:3 energy=-10.665298305016409 pbc="F F F"
Mn       0.00000000       0.00000000       0.00000000       0.00000000       0.00000000      -0.01364032
Mn       0.00000000       0.00000000       5.76484848       0.00000000       0.00000000       0.01364032
2
Properties=species:S:1:pos:R:3:forces:R:3 energy=-10.665966706301102 pbc="F F F"
Mn       0.00000000       0.00000000       0.00000000       0.00000000       0.00000000      -0.00788658
Mn       0.00000000       0.00000000       5.82363636       0.00000000       0.00000000       0.00788658
2
Properties=species:S:1:pos:R:3:forces:R:3 energy=-10.66613043987437 pbc="F F F"
Mn       0.00000000       0.00000000       0.00000000       0.00000000       0.00000000       0.00237999
Mn       0.00000000       0.00000000       5.88242424       0.00000000       0.00000000      -0.00237999
2
Properties=species:S:1:pos:R:3:forces:R:3 energy=-10.665720230115461 pbc="F F F"
Mn       0.00000000       0.00000000       0.00000000       0.00000000       0.00000000       0.01093834
Mn       0.00000000       0.00000000       5.94121212       0.00000000       0.00000000      -0.01093834
2
Properties=species:S:1:pos:R:3:forces:R:3 energy=-10.664961459840896 pbc="F F F"
Mn       0.00000000       0.00000000       0.00000000       0.00000000       0.00000000       0.01369574
Mn       0.00000000       0.00000000       6.00000000       0.00000000       0.00000000      -0.01369574
