2
Properties=species:S:1:pos:R:3:forces:R:3 energy=6788.0270857820715 pbc="F F F"
Mo       0.00000000       0.00000000       0.00000000       0.00000000       0.00000000 -110770.51562500
Mo       0.00000000       0.00000000       0.18000000       0.00000000       0.00000000  110770.51562500
2
Properties=species:S:1:pos:R:3:forces:R:3 energy=2826.526353360196 pbc="F F F"
Mo       0.00000000       0.00000000       0.00000000       0.00000000       0.00000000  -38731.75781250
Mo       0.00000000       0.00000000       0.23878788       0.00000000       0.00000000   38731.75781250
2
Properties=species:S:1:pos:R:3:forces:R:3 energy=1332.2144637180943 pbc="F F F"
Mo       0.00000000       0.00000000       0.00000000       0.00000000       0.00000000  -15961.52929688
Mo       0.00000000       0.00000000       0.29757576       0.00000000       0.00000000   15961.52929688
2
Properties=species:S:1:pos:R:3:forces:R:3 energy=686.2269148899694 pbc="F F F"
Mo       0.00000000       0.00000000       0.00000000       0.00000000       0.00000000   -7287.36181641
Mo       0.00000000       0.00000000       0.35636364       0.00000000       0.00000000    7287.36181641
2
Properties=species:S:1:pos:R:3:forces:R:3 energy=381.6169600686563 pbc="F F F"
Mo       0.00000000       0.00000000       0.00000000       0.00000000       0.00000000   -3565.44335938
Mo       0.00000000       0.00000000       0.41515152       0.00000000       0.00000000    3565.44335938
2
Properties=species:S:1:pos:R:3:forces:R:3 energy=229.0302291242963 pbc="F F F"
Mo       0.00000000       0.00000000       0.00000000       0.00000000       0.00000000   -1834.55187988
Mo       0.00000000       0.00000000       0.47393939       0.00000000       0.00000000    1834.55187988
2
Properties=species:S:1:pos:R:3:forces:R:3 energy=149.15712123948265 pbc="F F F"
Mo       0.00000000       0.00000000       0.00000000       0.00000000       0.00000000    -978.16693115
Mo       0.00000000       0.00000000       0.53272727       0.00000000       0.00000000     978.16693115
2
Properties=species:S:1:pos:R:3:forces:R:3 energy=106.18247377453079 pbc="F F F"
Mo       0.00000000       0.00000000       0.00000000       0.00000000       0.00000000    -529.65985107
Mo       0.00000000       0.00000000       0.59151515       0.00000000       0.00000000     529.65985107
2
Properties=species:S:1:pos:R:3:forces:R:3 energy=83.01858683296838 pbc="F F F"
Mo       0.00000000       0.00000000       0.00000000       0.00000000       0.00000000    -281.85043335
Mo       0.00000000       0.00000000       0.65030303       0.00000000       0.00000000     281.85043335
2
Properties=species:S:1:pos:R:3:forces:R:3 energy=70.96892724334866 pbc="F F F"
Mo       0.00000000       0.00000000       0.00000000       0.00000000       0.00000000    -141.39047241
Mo       0.00000000       0.00000000       0.70909091       0.00000000       0.00000000     141.39047241
2
Properties=species:S:1:pos:R:3:forces:R:3 energy=65.19127089091349 pbc="F F F"
Mo       0.00000000       0.00000000       0.00000000       0.00000000       0.00000000     -62.83805847
Mo       0.00000000       0.00000000       0.76787879       0.00000000       0.00000000      62.83805847
2
Properties=species:S:1:pos:R:3:forces:R:3 energy=62.892591855889066 pbc="F F F"
Mo       0.00000000       0.00000000       0.00000000       0.00000000       0.00000000     -19.92313957
Mo       0.00000000       0.00000000       0.82666667       0.00000000       0.00000000      19.92313957
2
Properties=species:S:1:pos:R:3:forces:R:3 energy=62.3925007339785 pbc="F F F"
Mo       0.00000000       0.00000000       0.00000000       0.00000000       0.00000000      -0.54358304
Mo       0.00000000       0.00000000       0.88545455       0.00000000       0.00000000       0.54358304
2
Properties=species:S:1:pos:R:3:forces:R:3 energy=62.4491801268443 pbc="F F F"
Mo       0.00000000       0.00000000       0.00000000       0.00000000       0.00000000      -0.59655082
Mo       0.00000000       0.00000000       0.94424242       0.00000000       0.00000000       0.59655082
2
Properties=species:S:1:pos:R:3:forces:R:3 energy=61.976562872793295 pbc="F F F"
Mo       0.00000000       0.00000000       0.00000000       0.00000000       0.00000000     -18.23246193
Mo       0.00000000       0.00000000       1.00303030       0.00000000       0.00000000      18.23246193
2
Properties=species:S:1:pos:R:3:forces:R:3 energy=60.02898558303348 pbc="F F F"
Mo       0.00000000       0.00000000       0.00000000       0.00000000       0.00000000     -49.84300995
Mo       0.00000000       0.00000000       1.06181818       0.00000000       0.00000000      49.84300995
2
Properties=species:S:1:pos:R:3:forces:R:3 energy=55.978312652440266 pbc="F F F"
Mo       0.00000000       0.00000000       0.00000000       0.00000000       0.00000000     -88.47280121
Mo       0.00000000       0.00000000       1.12060606       0.00000000       0.00000000      88.47280121
2
Properties=species:S:1:pos:R:3:forces:R:3 energy=49.64807629954742 pbc="F F F"
Mo       0.00000000       0.00000000       0.00000000       0.00000000       0.00000000    -125.98587036
Mo       0.00000000       0.00000000       1.17939394       0.00000000       0.00000000     125.98587036
2
Properties=species:S:1:pos:R:3:forces:R:3 energy=41.35794444188736 pbc="F F F"
Mo       0.00000000       0.00000000       0.00000000       0.00000000       0.00000000    -153.69155884
Mo       0.00000000       0.00000000       1.23818182       0.00000000       0.00000000     153.69155884
2
Properties=species:S:1:pos:R:3:forces:R:3 energy=31.923076050167122 pbc="F F F"
Mo       0.00000000       0.00000000       0.00000000       0.00000000       0.00000000    -163.98027039
Mo       0.00000000       0.00000000       1.29696970       0.00000000       0.00000000     163.98027039
2
Properties=species:S:1:pos:R:3:forces:R:3 energy=22.45032858891814 pbc="F F F"
Mo       0.00000000       0.00000000       0.00000000       0.00000000       0.00000000    -155.64572144
Mo       0.00000000       0.00000000       1.35575758       0.00000000       0.00000000     155.64572144
2
Properties=species:S:1:pos:R:3:forces:R:3 energy=13.833542071659059 pbc="F F F"
Mo       0.00000000       0.00000000       0.00000000       0.00000000       0.00000000    -136.53509521
Mo       0.00000000       0.00000000       1.41454545       0.00000000       0.00000000     136.53509521
2
Properties=species:S:1:pos:R:3:forces:R:3 energy=6.447611803291338 pbc="F F F"
Mo       0.00000000       0.00000000       0.00000000       0.00000000       0.00000000    -114.60961151
Mo       0.00000000       0.00000000       1.47333333       0.00000000       0.00000000     114.60961151
2
Properties=species:S:1:pos:R:3:forces:R:3 energy=0.37295470395178376 pbc="F F F"
Mo       0.00000000       0.00000000       0.00000000       0.00000000       0.00000000     -91.82106781
Mo       0.00000000       0.00000000       1.53212121       0.00000000       0.00000000      91.82106781
2
Properties=species:S:1:pos:R:3:forces:R:3 energy=-4.316726612233588 pbc="F F F"
Mo       0.00000000       0.00000000       0.00000000       0.00000000       0.00000000     -67.61636353
Mo       0.00000000       0.00000000       1.59090909       0.00000000       0.00000000      67.61636353
2
Properties=species:S:1:pos:R:3:forces:R:3 energy=-7.614976953564055 pbc="F F F"
Mo       0.00000000       0.00000000       0.00000000       0.00000000       0.00000000     -45.37041855
Mo       0.00000000       0.00000000       1.64969697       0.00000000       0.00000000      45.37041855
2
Properties=species:S:1:pos:R:3:forces:R:3 energy=-9.771110642541245 pbc="F F F"
Mo       0.00000000       0.00000000       0.00000000       0.00000000       0.00000000     -29.04384422
Mo       0.00000000       0.00000000       1.70848485       0.00000000       0.00000000      29.04384422
2
Properties=species:S:1:pos:R:3:forces:R:3 energy=-11.137357885899009 pbc="F F F"
Mo       0.00000000       0.00000000       0.00000000       0.00000000       0.00000000     -18.17490196
Mo       0.00000000       0.00000000       1.76727273       0.00000000       0.00000000      18.17490196
2
Properties=species:S:1:pos:R:3:forces:R:3 energy=-11.977501796407575 pbc="F F F"
Mo       0.00000000       0.00000000       0.00000000       0.00000000       0.00000000     -10.87958527
Mo       0.00000000       0.00000000       1.82606061       0.00000000       0.00000000      10.87958527
2
Properties=species:S:1:pos:R:3:forces:R:3 energy=-12.461507706268618 pbc="F F F"
Mo       0.00000000       0.00000000       0.00000000       0.00000000       0.00000000      -5.89147329
Mo       0.00000000       0.00000000       1.88484848       0.00000000       0.00000000       5.89147329
2
Properties=species:S:1:pos:R:3:forces:R:3 energy=-12.69884187044123 pbc="F F F"
Mo       0.00000000       0.00000000       0.00000000       0.00000000       0.00000000      -2.37607813
Mo       0.00000000       0.00000000       1.94363636       0.00000000       0.00000000       2.37607813
2
Properties=species:S:1:pos:R:3:forces:R:3 energy=-12.75934376012883 pbc="F F F"
Mo       0.00000000       0.00000000       0.00000000       0.00000000       0.00000000       0.18952909
Mo       0.00000000       0.00000000       2.00242424       0.00000000       0.00000000      -0.18952909
2
Properties=species:S:1:pos:R:3:forces:R:3 energy=-12.689345091417639 pbc="F F F"
Mo       0.00000000       0.00000000       0.00000000       0.00000000       0.00000000       2.09685254
Mo       0.00000000       0.00000000       2.06121212       0.00000000       0.00000000      -2.09685254
2
Properties=species:S:1:pos:R:3:forces:R:3 energy=-12.523282295947357 pbc="F F F"
Mo       0.00000000       0.00000000       0.00000000       0.00000000       0.00000000       3.46527767
Mo       0.00000000       0.00000000       2.12000000       0.00000000       0.00000000      -3.46527767
2
Properties=species:S:1:pos:R:3:forces:R:3 energy=-12.292387760437817 pbc="F F F"
Mo       0.00000000       0.00000000       0.00000000       0.00000000       0.00000000       4.29985619
Mo       0.00000000       0.00000000       2.17878788       0.00000000       0.00000000      -4.29985619
2
Properties=species:S:1:pos:R:3:forces:R:3 energy=-12.027771183091485 pbc="F F F"
Mo       0.00000000       0.00000000       0.00000000       0.00000000       0.00000000       4.62695312
Mo       0.00000000       0.00000000       2.23757576       0.00000000       0.00000000      -4.62695312
2
Properties=species:S:1:pos:R:3:forces:R:3 energy=-11.755275362304065 pbc="F F F"
Mo       0.00000000       0.00000000       0.00000000       0.00000000       0.00000000       4.60459423
Mo       0.00000000       0.00000000       2.29636364       0.00000000       0.00000000      -4.60459423
2
Properties=species:S:1:pos:R:3:forces:R:3 energy=-11.488686409015013 pbc="F F F"
Mo       0.00000000       0.00000000       0.00000000       0.00000000       0.00000000       4.46143913
Mo       0.00000000       0.00000000       2.35515152       0.00000000       0.00000000      -4.46143913
2
Properties=species:S:1:pos:R:3:forces:R:3 energy=-11.230153337744468 pbc="F F F"
Mo       0.00000000       0.00000000       0.00000000       0.00000000       0.00000000       4.34142256
Mo       0.00000000       0.00000000       2.41393939       0.00000000       0.00000000      -4.34142256
2
Properties=species:S:1:pos:R:3:forces:R:3 energy=-10.977943925366176 pbc="F F F"
Mo       0.00000000       0.00000000       0.00000000       0.00000000       0.00000000       4.23299789
Mo       0.00000000       0.00000000       2.47272727       0.00000000       0.00000000      -4.23299789
2
Properties=species:S:1:pos:R:3:forces:R:3 energy=-10.734399361634363 pbc="F F F"
Mo       0.00000000       0.00000000       0.00000000       0.00000000       0.00000000       4.02575397
Mo       0.00000000       0.00000000       2.53151515       0.00000000       0.00000000      -4.02575397
2
Properties=species:S:1:pos:R:3:forces:R:3 energy=-10.50861858799954 pbc="F F F"
Mo       0.00000000       0.00000000       0.00000000       0.00000000       0.00000000       3.61720967
Mo       0.00000000       0.00000000       2.59030303       0.00000000       0.00000000      -3.61720967
2
Properties=species:S:1:pos:R:3:forces:R:3 energy=-10.313450575590197 pbc="F F F"
Mo       0.00000000       0.00000000       0.00000000       0.00000000       0.00000000       2.99031711
Mo       0.00000000       0.00000000       2.64909091       0.00000000       0.00000000      -2.99031711
2
Properties=species:S:1:pos:R:3:forces:R:3 energy=-10.159731334035783 pbc="F F F"
Mo       0.00000000       0.00000000       0.00000000       0.00000000       0.00000000       2.22756267
Mo       0.00000000       0.00000000       2.70787879       0.00000000       0.00000000      -2.22756267
2
Properties=species:S:1:pos:R:3:forces:R:3 energy=-10.05145546000126 pbc="F F F"
Mo       0.00000000       0.00000000       0.00000000       0.00000000       0.00000000       1.46907830
Mo       0.00000000       0.00000000       2.76666667       0.00000000       0.00000000      -1.46907830
2
Properties=species:S:1:pos:R:3:forces:R:3 energy=-9.984242190695428 pbc="F F F"
Mo       0.00000000       0.00000000       0.00000000       0.00000000       0.00000000       0.84963095
Mo       0.00000000       0.00000000       2.82545455       0.00000000       0.00000000      -0.84963095
2
Properties=species:S:1:pos:R:3:forces:R:3 energy=-9.947178412554125 pbc="F F F"
Mo       0.00000000       0.00000000       0.00000000       0.00000000       0.00000000       0.45133659
Mo       0.00000000       0.00000000       2.88424242       0.00000000       0.00000000      -0.45133659
2
Properties=species:S:1:pos:R:3:forces:R:3 energy=-9.92654861624144 pbc="F F F"
Mo       0.00000000       0.00000000       0.00000000       0.00000000       0.00000000       0.28701577
Mo       0.00000000       0.00000000       2.94303030       0.00000000       0.00000000      -0.28701577
2
Properties=species:S:1:pos:R:3:forces:R:3 energy=-9.909801755079902 pbc="F F F"
Mo       0.00000000       0.00000000       0.00000000       0.00000000       0.00000000       0.30656096
Mo       0.00000000       0.00000000       3.00181818       0.00000000       0.00000000      -0.30656096
2
Properties=species:S:1:pos:R:3:forces:R:3 energy=-9.8886725065353 pbc="F F F"
Mo       0.00000000       0.00000000       0.00000000       0.00000000       0.00000000       0.41952291
Mo       0.00000000       0.00000000       3.06060606       0.00000000       0.00000000      -0.41952291
2
Properties=species:S:1:pos:R:3:forces:R:3 energy=-9.860480966350805 pbc="F F F"
Mo       0.00000000       0.00000000       0.00000000       0.00000000       0.00000000       0.53339994
Mo       0.00000000       0.00000000       3.11939394       0.00000000       0.00000000      -0.53339994
2
Properties=species:S:1:pos:R:3:forces:R:3 energy=-9.827150482693515 pbc="F F F"
Mo       0.00000000       0.00000000       0.00000000       0.00000000       0.00000000       0.58792704
Mo       0.00000000       0.00000000       3.17818182       0.00000000       0.00000000      -0.58792704
2
Properties=species:S:1:pos:R:3:forces:R:3 energy=-9.792880876418426 pbc="F F F"
Mo       0.00000000       0.00000000       0.00000000       0.00000000       0.00000000       0.56578022
Mo       0.00000000       0.00000000       3.23696970       0.00000000       0.00000000      -0.56578022
2
Properties=species:S:1:pos:R:3:forces:R:3 energy=-9.761790782592124 pbc="F F F"
Mo       0.00000000       0.00000000       0.00000000       0.00000000       0.00000000       0.48492947
Mo       0.00000000       0.00000000       3.29575758       0.00000000       0.00000000      -0.48492947
2
Properties=species:S:1:pos:R:3:forces:R:3 energy=-9.736289808371133 pbc="F F F"
Mo       0.00000000       0.00000000       0.00000000       0.00000000       0.00000000       0.38239625
Mo       0.00000000       0.00000000       3.35454545       0.00000000       0.00000000      -0.38239625
2
Properties=species:S:1:pos:R:3:forces:R:3 energy=-9.716511561726593 pbc="F F F"
Mo       0.00000000       0.00000000       0.00000000       0.00000000       0.00000000       0.29565644
Mo       0.00000000       0.00000000       3.41333333       0.00000000       0.00000000      -0.29565644
2
Properties=species:S:1:pos:R:3:forces:R:3 energy=-9.700741705753847 pbc="F F F"
Mo       0.00000000       0.00000000       0.00000000       0.00000000       0.00000000       0.24837853
Mo       0.00000000       0.00000000       3.47212121       0.00000000       0.00000000      -0.24837853
2
Properties=species:S:1:pos:R:3:forces:R:3 energy=-9.686431607534905 pbc="F F F"
Mo       0.00000000       0.00000000       0.00000000       0.00000000       0.00000000       0.24532330
Mo       0.00000000       0.00000000       3.53090909       0.00000000       0.00000000      -0.24532330
2
Properties=species:S:1:pos:R:3:forces:R:3 energy=-9.671228169384566 pbc="F F F"
Mo       0.00000000       0.00000000       0.00000000       0.00000000       0.00000000       0.27620739
Mo       0.00000000       0.00000000       3.58969697       0.00000000       0.00000000      -0.27620739
2
Properties=species:S:1:pos:R:3:forces:R:3 energy=-9.653623949310502 pbc="F F F"
Mo       0.00000000       0.00000000       0.00000000       0.00000000       0.00000000       0.32409939
Mo       0.00000000       0.00000000       3.64848485       0.00000000       0.00000000      -0.32409939
2
Properties=species:S:1:pos:R:3:forces:R:3 energy=-9.633101805735125 pbc="F F F"
Mo       0.00000000       0.00000000       0.00000000       0.00000000       0.00000000       0.37320018
Mo       0.00000000       0.00000000       3.70727273       0.00000000       0.00000000      -0.37320018
2
Properties=species:S:1:pos:R:3:forces:R:3 energy=-9.609929730804659 pbc="F F F"
Mo       0.00000000       0.00000000       0.00000000       0.00000000       0.00000000       0.41302088
Mo       0.00000000       0.00000000       3.76606061       0.00000000       0.00000000      -0.41302088
2
Properties=species:S:1:pos:R:3:forces:R:3 energy=-9.584818224556114 pbc="F F F"
Mo       0.00000000       0.00000000       0.00000000       0.00000000       0.00000000       0.43882412
Mo       0.00000000       0.00000000       3.82484848       0.00000000       0.00000000      -0.43882412
2
Properties=species:S:1:pos:R:3:forces:R:3 energy=-9.558623151003834 pbc="F F F"
Mo       0.00000000       0.00000000       0.00000000       0.00000000       0.00000000       0.45001224
Mo       0.00000000       0.00000000       3.88363636       0.00000000       0.00000000      -0.45001224
2
Properties=species:S:1:pos:R:3:forces:R:3 energy=-9.532162223861828 pbc="F F F"
Mo       0.00000000       0.00000000       0.00000000       0.00000000       0.00000000       0.44823825
Mo       0.00000000       0.00000000       3.94242424       0.00000000       0.00000000      -0.44823825
2
Properties=species:S:1:pos:R:3:forces:R:3 energy=-9.506123213054922 pbc="F F F"
Mo       0.00000000       0.00000000       0.00000000       0.00000000       0.00000000       0.43614277
Mo       0.00000000       0.00000000       4.00121212       0.00000000       0.00000000      -0.43614277
2
Properties=species:S:1:pos:R:3:forces:R:3 energy=-9.481026840119434 pbc="F F F"
Mo       0.00000000       0.00000000       0.00000000       0.00000000       0.00000000       0.41669476
Mo       0.00000000       0.00000000       4.06000000       0.00000000       0.00000000      -0.41669476
2
Properties=species:S:1:pos:R:3:forces:R:3 energy=-9.45721745687192 pbc="F F F"
Mo       0.00000000       0.00000000       0.00000000       0.00000000       0.00000000       0.39281613
Mo       0.00000000       0.00000000       4.11878788       0.00000000       0.00000000      -0.39281613
2
Properties=species:S:1:pos:R:3:forces:R:3 energy=-9.434877027406056 pbc="F F F"
Mo       0.00000000       0.00000000       0.00000000       0.00000000       0.00000000       0.36704555
Mo       0.00000000       0.00000000       4.17757576       0.00000000       0.00000000      -0.36704555
2
Properties=species:S:1:pos:R:3:forces:R:3 energy=-9.414060585104746 pbc="F F F"
Mo       0.00000000       0.00000000       0.00000000       0.00000000       0.00000000       0.34128350
Mo       0.00000000       0.00000000       4.23636364       0.00000000       0.00000000      -0.34128350
2
Properties=species:S:1:pos:R:3:forces:R:3 energy=-9.394727564508386 pbc="F F F"
Mo       0.00000000       0.00000000       0.00000000       0.00000000       0.00000000       0.31664783
Mo       0.00000000       0.00000000       4.29515152       0.00000000       0.00000000      -0.31664783
2
Properties=species:S:1:pos:R:3:forces:R:3 energy=-9.376799975448167 pbc="F F F"
Mo       0.00000000       0.00000000       0.00000000       0.00000000       0.00000000       0.29354727
Mo       0.00000000       0.00000000       4.35393939       0.00000000       0.00000000      -0.29354727
2
Properties=species:S:1:pos:R:3:forces:R:3 energy=-9.360185991478208 pbc="F F F"
Mo       0.00000000       0.00000000       0.00000000       0.00000000       0.00000000       0.27187580
Mo       0.00000000       0.00000000       4.41272727       0.00000000       0.00000000      -0.27187580
2
Properties=species:S:1:pos:R:3:forces:R:3 energy=-9.344812400144898 pbc="F F F"
Mo       0.00000000       0.00000000       0.00000000       0.00000000       0.00000000       0.25130031
Mo       0.00000000       0.00000000       4.47151515       0.00000000       0.00000000      -0.25130031
2
Properties=species:S:1:pos:R:3:forces:R:3 energy=-9.330623421229381 pbc="F F F"
Mo       0.00000000       0.00000000       0.00000000       0.00000000       0.00000000       0.23150995
Mo       0.00000000       0.00000000       4.53030303       0.00000000       0.00000000      -0.23150995
2
Properties=species:S:1:pos:R:3:forces:R:3 energy=-9.317580608545068 pbc="F F F"
Mo       0.00000000       0.00000000       0.00000000       0.00000000       0.00000000       0.21235308
Mo       0.00000000       0.00000000       4.58909091       0.00000000       0.00000000      -0.21235308
2
Properties=species:S:1:pos:R:3:forces:R:3 energy=-9.30564363389932 pbc="F F F"
Mo       0.00000000       0.00000000       0.00000000       0.00000000       0.00000000       0.19385569
Mo       0.00000000       0.00000000       4.64787879       0.00000000       0.00000000      -0.19385569
2
Properties=species:S:1:pos:R:3:forces:R:3 energy=-9.294771979030164 pbc="F F F"
Mo       0.00000000       0.00000000       0.00000000       0.00000000       0.00000000       0.17611676
Mo       0.00000000       0.00000000       4.70666667       0.00000000       0.00000000      -0.17611676
2
Properties=species:S:1:pos:R:3:forces:R:3 energy=-9.284920116549563 pbc="F F F"
Mo       0.00000000       0.00000000       0.00000000       0.00000000       0.00000000       0.15919293
Mo       0.00000000       0.00000000       4.76545455       0.00000000       0.00000000      -0.15919293
2
Properties=species:S:1:pos:R:3:forces:R:3 energy=-9.276040209407434 pbc="F F F"
Mo       0.00000000       0.00000000       0.00000000       0.00000000       0.00000000       0.14303282
Mo       0.00000000       0.00000000       4.82424242       0.00000000       0.00000000      -0.14303282
2
Properties=species:S:1:pos:R:3:forces:R:3 energy=-9.26808965475498 pbc="F F F"
Mo       0.00000000       0.00000000       0.00000000       0.00000000       0.00000000       0.12757185
Mo       0.00000000       0.00000000       4.88303030       0.00000000       0.00000000      -0.12757185
2
Properties=species:S:1:pos:R:3:forces:R:3 energy=-9.26102520984334 pbc="F F F"
Mo       0.00000000       0.00000000       0.00000000       0.00000000       0.00000000       0.11290905
Mo       0.00000000       0.00000000       4.94181818       0.00000000       0.00000000      -0.11290905
2
Properties=species:S:1:pos:R:3:forces:R:3 energy=-9.25479058158616 pbc="F F F"
Mo       0.00000000       0.00000000       0.00000000       0.00000000       0.00000000       0.09948149
Mo       0.00000000       0.00000000       5.00060606       0.00000000       0.00000000      -0.09948149
2
Properties=species:S:1:pos:R:3:forces:R:3 energy=-9.249291634195224 pbc="F F F"
Mo       0.00000000       0.00000000       0.00000000       0.00000000       0.00000000       0.08791874
Mo       0.00000000       0.00000000       5.05939394       0.00000000       0.00000000      -0.08791874
2
Properties=species:S:1:pos:R:3:forces:R:3 energy=-9.244411521256598 pbc="F F F"
Mo       0.00000000       0.00000000       0.00000000       0.00000000       0.00000000       0.07843371
Mo       0.00000000       0.00000000       5.11818182       0.00000000       0.00000000      -0.07843371
2
Properties=species:S:1:pos:R:3:forces:R:3 energy=-9.240048873884996 pbc="F F F"
Mo       0.00000000       0.00000000       0.00000000       0.00000000       0.00000000       0.06997033
Mo       0.00000000       0.00000000       5.17696970       0.00000000       0.00000000      -0.06997033
2
Properties=species:S:1:pos:R:3:forces:R:3 energy=-9.236206574798574 pbc="F F F"
Mo       0.00000000       0.00000000       0.00000000       0.00000000       0.00000000       0.06041699
Mo       0.00000000       0.00000000       5.23575758       0.00000000       0.00000000      -0.06041699
2
Properties=species:S:1:pos:R:3:forces:R:3 energy=-9.232983051705016 pbc="F F F"
Mo       0.00000000       0.00000000       0.00000000       0.00000000       0.00000000       0.04908785
Mo       0.00000000       0.00000000       5.29454545       0.00000000       0.00000000      -0.04908785
2
Properties=species:S:1:pos:R:3:forces:R:3 energy=-9.230415136451239 pbc="F F F"
Mo       0.00000000       0.00000000       0.00000000       0.00000000       0.00000000       0.03878390
Mo       0.00000000       0.00000000       5.35333333       0.00000000       0.00000000      -0.03878390
2
Properties=species:S:1:pos:R:3:forces:R:3 energy=-9.228340666229736 pbc="F F F"
Mo       0.00000000       0.00000000       0.00000000       0.00000000       0.00000000       0.03251460
Mo       0.00000000       0.00000000       5.41212121       0.00000000       0.00000000      -0.03251460
2
Properties=species:S:1:pos:R:3:forces:R:3 energy=-9.226537802392155 pbc="F F F"
Mo       0.00000000       0.00000000       0.00000000       0.00000000       0.00000000       0.02894850
Mo       0.00000000       0.00000000       5.47090909       0.00000000       0.00000000      -0.02894850
2
Properties=species:S:1:pos:R:3:forces:R:3 energy=-9.22497018810505 pbc="F F F"
Mo       0.00000000       0.00000000       0.00000000       0.00000000       0.00000000       0.02379452
Mo       0.00000000       0.00000000       5.52969697       0.00000000       0.00000000      -0.02379452
2
Properties=species:S:1:pos:R:3:forces:R:3 energy=-9.223817557794861 pbc="F F F"
Mo       0.00000000       0.00000000       0.00000000       0.00000000       0.00000000       0.01489974
Mo       0.00000000       0.00000000       5.58848485       0.00000000       0.00000000      -0.01489974
2
Properties=species:S:1:pos:R:3:forces:R:3 energy=-9.22322110927324 pbc="F F F"
Mo       0.00000000       0.00000000       0.00000000       0.00000000       0.00000000       0.00596926
Mo       0.00000000       0.00000000       5.64727273       0.00000000       0.00000000      -0.00596926
2
Properties=species:S:1:pos:R:3:forces:R:3 energy=-9.222985079703758 pbc="F F F"
Mo       0.00000000       0.00000000       0.00000000       0.00000000       0.00000000       0.00347467
Mo       0.00000000       0.00000000       5.70606061       0.00000000       0.00000000      -0.00347467
2
Properties=species:S:1:pos:R:3:forces:R:3 energy=-9.222673149071232 pbc="F F F"
Mo       0.00000000       0.00000000       0.00000000       0.00000000       0.00000000       0.00791894
Mo       0.00000000       0.00000000       5.76484848       0.00000000       0.00000000      -0.00791894
2
Properties=species:S:1:pos:R:3:forces:R:3 energy=-9.222039532650971 pbc="F F F"
Mo       0.00000000       0.00000000       0.00000000       0.00000000       0.00000000       0.01323597
Mo       0.00000000       0.00000000       5.82363636       0.00000000       0.00000000      -0.01323597
2
Properties=species:S:1:pos:R:3:forces:R:3 energy=-9.22118253049326 pbc="F F F"
Mo       0.00000000       0.00000000       0.00000000       0.00000000       0.00000000       0.01536924
Mo       0.00000000       0.00000000       5.88242424       0.00000000       0.00000000      -0.01536924
2
Properties=species:S:1:pos:R:3:forces:R:3 energy=-9.22027856474678 pbc="F F F"
Mo       0.00000000       0.00000000       0.00000000       0.00000000       0.00000000       0.01515191
Mo       0.00000000       0.00000000       5.94121212       0.00000000       0.00000000      -0.01515191
2
Properties=species:S:1:pos:R:3:forces:R:3 energy=-9.219410488187338 pbc="F F F"
Mo       0.00000000       0.00000000       0.00000000       0.00000000       0.00000000       0.01437535
Mo       0.00000000       0.00000000       6.00000000       0.00000000       0.00000000      -0.01437535
