2
Properties=species:S:1:pos:R:3:forces:R:3 energy=803.3299298980496 pbc="F F F"
Ne       0.00000000       0.00000000       0.00000000       0.00000000       0.00000000  -11240.27343750
Ne       0.00000000       0.00000000       0.18000000       0.00000000       0.00000000   11240.27343750
2
Properties=species:S:1:pos:R:3:forces:R:3 energy=378.41287667539336 pbc="F F F"
Ne       0.00000000       0.00000000       0.00000000       0.00000000       0.00000000   -4464.13134766
Ne       0.00000000       0.00000000       0.23878788       0.00000000       0.00000000    4464.13134766
2
Properties=species:S:1:pos:R:3:forces:R:3 energy=197.49377877658662 pbc="F F F"
Ne       0.00000000       0.00000000       0.00000000       0.00000000       0.00000000   -2060.22119141
Ne       0.00000000       0.00000000       0.29757576       0.00000000       0.00000000    2060.22119141
2
Properties=species:S:1:pos:R:3:forces:R:3 energy=109.87472207928222 pbc="F F F"
Ne       0.00000000       0.00000000       0.00000000       0.00000000       0.00000000   -1053.36437988
Ne       0.00000000       0.00000000       0.35636364       0.00000000       0.00000000    1053.36437988
2
Properties=species:S:1:pos:R:3:forces:R:3 energy=63.53559931656889 pbc="F F F"
Ne       0.00000000       0.00000000       0.00000000       0.00000000       0.00000000    -577.98321533
Ne       0.00000000       0.00000000       0.41515152       0.00000000       0.00000000     577.98321533
2
Properties=species:S:1:pos:R:3:forces:R:3 energy=37.514542206273596 pbc="F F F"
Ne       0.00000000       0.00000000       0.00000000       0.00000000       0.00000000    -332.56250000
Ne       0.00000000       0.00000000       0.47393939       0.00000000       0.00000000     332.56250000
2
Properties=species:S:1:pos:R:3:forces:R:3 energy=22.3165766191714 pbc="F F F"
Ne       0.00000000       0.00000000       0.00000000       0.00000000       0.00000000    -197.20265198
Ne       0.00000000       0.00000000       0.53272727       0.00000000       0.00000000     197.20265198
2
Properties=species:S:1:pos:R:3:forces:R:3 energy=13.226550778357542 pbc="F F F"
Ne       0.00000000       0.00000000       0.00000000       0.00000000       0.00000000    -118.89945984
Ne       0.00000000       0.00000000       0.59151515       0.00000000       0.00000000     118.89945984
2
Properties=species:S:1:pos:R:3:forces:R:3 energy=7.727412524076746 pbc="F F F"
Ne       0.00000000       0.00000000       0.00000000       0.00000000       0.00000000     -72.07896423
Ne       0.00000000       0.00000000       0.65030303       0.00000000       0.00000000      72.07896423
2
Properties=species:S:1:pos:R:3:forces:R:3 energy=4.398409824863624 pbc="F F F"
Ne       0.00000000       0.00000000       0.00000000       0.00000000       0.00000000     -43.47982788
Ne       0.00000000       0.00000000       0.70909091       0.00000000       0.00000000      43.47982788
2
Properties=species:S:1:pos:R:3:forces:R:3 energy=2.402984602103373 pbc="F F F"
Ne       0.00000000       0.00000000       0.00000000       0.00000000       0.00000000     -25.81007004
Ne       0.00000000       0.00000000       0.76787879       0.00000000       0.00000000      25.81007004
2
Properties=species:S:1:pos:R:3:forces:R:3 energy=1.2329723620461943 pbc="F F F"
Ne       0.00000000       0.00000000       0.00000000       0.00000000       0.00000000     -14.86914253
Ne       0.00000000       0.00000000       0.82666667       0.00000000       0.00000000      14.86914253
2
Properties=species:S:1:pos:R:3:forces:R:3 energy=0.5726255252186548 pbc="F F F"
Ne       0.00000000       0.00000000       0.00000000       0.00000000       0.00000000      -8.14952660
Ne       0.00000000       0.00000000       0.88545455       0.00000000       0.00000000       8.14952660
2
Properties=species:S:1:pos:R:3:forces:R:3 energy=0.22256205790621866 pbc="F F F"
Ne       0.00000000       0.00000000       0.00000000       0.00000000       0.00000000      -4.11342382
Ne       0.00000000       0.00000000       0.94424242       0.00000000       0.00000000       4.11342382
2
Properties=species:S:1:pos:R:3:forces:R:3 energy=0.05550290417797987 pbc="F F F"
Ne       0.00000000       0.00000000       0.00000000       0.00000000       0.00000000      -1.79722655
Ne       0.00000000       0.00000000       1.00303030       0.00000000       0.00000000       1.79722655
2
Properties=species:S:1:pos:R:3:forces:R:3 energy=-0.010262265820571997 pbc="F F F"
Ne       0.00000000       0.00000000       0.00000000       0.00000000       0.00000000      -0.58585876
Ne       0.00000000       0.00000000       1.06181818       0.00000000       0.00000000       0.58585876
2
Properties=species:S:1:pos:R:3:forces:R:3 energy=-0.027124356823821326 pbc="F F F"
Ne       0.00000000       0.00000000       0.00000000       0.00000000       0.00000000      -0.08034003
Ne       0.00000000       0.00000000       1.12060606       0.00000000       0.00000000       0.08034003
2
Properties=species:S:1:pos:R:3:forces:R:3 energy=-0.02822501632390338 pbc="F F F"
Ne       0.00000000       0.00000000       0.00000000       0.00000000       0.00000000      -0.00167208
Ne       0.00000000       0.00000000       1.17939394       0.00000000       0.00000000       0.00167208
2
Properties=species:S:1:pos:R:3:forces:R:3 energy=-0.028326286988564278 pbc="F F F"
Ne       0.00000000       0.00000000       0.00000000       0.00000000       0.00000000      -0.00177022
Ne       0.00000000       0.00000000       1.23818182       0.00000000       0.00000000       0.00177022
2
Properties=species:S:1:pos:R:3:forces:R:3 energy=-0.028432826862247483 pbc="F F F"
Ne       0.00000000       0.00000000       0.00000000       0.00000000       0.00000000      -0.00185089
Ne       0.00000000       0.00000000       1.29696970       0.00000000       0.00000000       0.00185089
2
Properties=species:S:1:pos:R:3:forces:R:3 energy=-0.028543305994293416 pbc="F F F"
Ne       0.00000000       0.00000000       0.00000000       0.00000000       0.00000000      -0.00190056
Ne       0.00000000       0.00000000       1.35575758       0.00000000       0.00000000       0.00190056
2
Properties=species:S:1:pos:R:3:forces:R:3 energy=-0.028655224752631846 pbc="F F F"
Ne       0.00000000       0.00000000       0.00000000       0.00000000       0.00000000      -0.00189653
Ne       0.00000000       0.00000000       1.41454545       0.00000000       0.00000000       0.00189653
2
Properties=species:S:1:pos:R:3:forces:R:3 energy=-0.028765001250860206 pbc="F F F"
Ne       0.00000000       0.00000000       0.00000000       0.00000000       0.00000000      -0.00182724
Ne       0.00000000       0.00000000       1.47333333       0.00000000       0.00000000       0.00182724
2
Properties=species:S:1:pos:R:3:forces:R:3 energy=-0.028868886302989644 pbc="F F F"
Ne       0.00000000       0.00000000       0.00000000       0.00000000       0.00000000      -0.00169825
Ne       0.00000000       0.00000000       1.53212121       0.00000000       0.00000000       0.00169825
2
Properties=species:S:1:pos:R:3:forces:R:3 energy=-0.028963803637897686 pbc="F F F"
Ne       0.00000000       0.00000000       0.00000000       0.00000000       0.00000000      -0.00152490
Ne       0.00000000       0.00000000       1.59090909       0.00000000       0.00000000       0.00152490
2
Properties=species:S:1:pos:R:3:forces:R:3 energy=-0.029047625966788115 pbc="F F F"
Ne       0.00000000       0.00000000       0.00000000       0.00000000       0.00000000      -0.00132328
Ne       0.00000000       0.00000000       1.64969697       0.00000000       0.00000000       0.00132328
2
Properties=species:S:1:pos:R:3:forces:R:3 energy=-0.02911908823082448 pbc="F F F"
Ne       0.00000000       0.00000000       0.00000000       0.00000000       0.00000000      -0.00110614
Ne       0.00000000       0.00000000       1.70848485       0.00000000       0.00000000       0.00110614
2
Properties=species:S:1:pos:R:3:forces:R:3 energy=-0.02917756182508927 pbc="F F F"
Ne       0.00000000       0.00000000       0.00000000       0.00000000       0.00000000      -0.00088271
Ne       0.00000000       0.00000000       1.76727273       0.00000000       0.00000000       0.00088271
2
Properties=species:S:1:pos:R:3:forces:R:3 energy=-0.02922287736856067 pbc="F F F"
Ne       0.00000000       0.00000000       0.00000000       0.00000000       0.00000000      -0.00065936
Ne       0.00000000       0.00000000       1.82606061       0.00000000       0.00000000       0.00065936
2
Properties=species:S:1:pos:R:3:forces:R:3 energy=-0.029255162096516425 pbc="F F F"
Ne       0.00000000       0.00000000       0.00000000       0.00000000       0.00000000      -0.00043991
Ne       0.00000000       0.00000000       1.88484848       0.00000000       0.00000000       0.00043991
2
Properties=species:S:1:pos:R:3:forces:R:3 energy=-0.029274709431126696 pbc="F F F"
Ne       0.00000000       0.00000000       0.00000000       0.00000000       0.00000000      -0.00022608
Ne       0.00000000       0.00000000       1.94363636       0.00000000       0.00000000       0.00022608
2
Properties=species:S:1:pos:R:3:forces:R:3 energy=-0.029281859610674144 pbc="F F F"
Ne       0.00000000       0.00000000       0.00000000       0.00000000       0.00000000      -0.00001805
Ne       0.00000000       0.00000000       2.00242424       0.00000000       0.00000000       0.00001805
2
Properties=species:S:1:pos:R:3:forces:R:3 energy=-0.02927693508319215 pbc="F F F"
Ne       0.00000000       0.00000000       0.00000000       0.00000000       0.00000000       0.00018474
Ne       0.00000000       0.00000000       2.06121212       0.00000000       0.00000000      -0.00018474
2
Properties=species:S:1:pos:R:3:forces:R:3 energy=-0.029260225003588818 pbc="F F F"
Ne       0.00000000       0.00000000       0.00000000       0.00000000       0.00000000       0.00038313
Ne       0.00000000       0.00000000       2.12000000       0.00000000       0.00000000      -0.00038313
2
Properties=species:S:1:pos:R:3:forces:R:3 energy=-0.029231963468123595 pbc="F F F"
Ne       0.00000000       0.00000000       0.00000000       0.00000000       0.00000000       0.00057777
Ne       0.00000000       0.00000000       2.17878788       0.00000000       0.00000000      -0.00057777
2
Properties=species:S:1:pos:R:3:forces:R:3 energy=-0.029192357717322277 pbc="F F F"
Ne       0.00000000       0.00000000       0.00000000       0.00000000       0.00000000       0.00076904
Ne       0.00000000       0.00000000       2.23757576       0.00000000       0.00000000      -0.00076904
2
Properties=species:S:1:pos:R:3:forces:R:3 energy=-0.02914160774462468 pbc="F F F"
Ne       0.00000000       0.00000000       0.00000000       0.00000000       0.00000000       0.00095691
Ne       0.00000000       0.00000000       2.29636364       0.00000000       0.00000000      -0.00095691
2
Properties=species:S:1:pos:R:3:forces:R:3 energy=-0.029079923279182032 pbc="F F F"
Ne       0.00000000       0.00000000       0.00000000       0.00000000       0.00000000       0.00114093
Ne       0.00000000       0.00000000       2.35515152       0.00000000       0.00000000      -0.00114093
2
Properties=species:S:1:pos:R:3:forces:R:3 energy=-0.029007552824974126 pbc="F F F"
Ne       0.00000000       0.00000000       0.00000000       0.00000000       0.00000000       0.00132029
Ne       0.00000000       0.00000000       2.41393939       0.00000000       0.00000000      -0.00132029
2
Properties=species:S:1:pos:R:3:forces:R:3 energy=-0.028924803063719973 pbc="F F F"
Ne       0.00000000       0.00000000       0.00000000       0.00000000       0.00000000       0.00149380
Ne       0.00000000       0.00000000       2.47272727       0.00000000       0.00000000      -0.00149380
2
Properties=species:S:1:pos:R:3:forces:R:3 energy=-0.028832062261812834 pbc="F F F"
Ne       0.00000000       0.00000000       0.00000000       0.00000000       0.00000000       0.00165997
Ne       0.00000000       0.00000000       2.53151515       0.00000000       0.00000000      -0.00165997
2
Properties=species:S:1:pos:R:3:forces:R:3 energy=-0.028729810800229606 pbc="F F F"
Ne       0.00000000       0.00000000       0.00000000       0.00000000       0.00000000       0.00181702
Ne       0.00000000       0.00000000       2.59030303       0.00000000       0.00000000      -0.00181702
2
Properties=species:S:1:pos:R:3:forces:R:3 energy=-0.02861864066593482 pbc="F F F"
Ne       0.00000000       0.00000000       0.00000000       0.00000000       0.00000000       0.00196302
Ne       0.00000000       0.00000000       2.64909091       0.00000000       0.00000000      -0.00196302
2
Properties=species:S:1:pos:R:3:forces:R:3 energy=-0.02849926332718935 pbc="F F F"
Ne       0.00000000       0.00000000       0.00000000       0.00000000       0.00000000       0.00209589
Ne       0.00000000       0.00000000       2.70787879       0.00000000       0.00000000      -0.00209589
2
Properties=species:S:1:pos:R:3:forces:R:3 energy=-0.02837251104647559 pbc="F F F"
Ne       0.00000000       0.00000000       0.00000000       0.00000000       0.00000000       0.00221363
Ne       0.00000000       0.00000000       2.76666667       0.00000000       0.00000000      -0.00221363
2
Properties=species:S:1:pos:R:3:forces:R:3 energy=-0.02823932832272874 pbc="F F F"
Ne       0.00000000       0.00000000       0.00000000       0.00000000       0.00000000       0.00231436
Ne       0.00000000       0.00000000       2.82545455       0.00000000       0.00000000      -0.00231436
2
Properties=species:S:1:pos:R:3:forces:R:3 energy=-0.028100763341316292 pbc="F F F"
Ne       0.00000000       0.00000000       0.00000000       0.00000000       0.00000000       0.00239652
Ne       0.00000000       0.00000000       2.88424242       0.00000000       0.00000000      -0.00239652
2
Properties=species:S:1:pos:R:3:forces:R:3 energy=-0.02795794136278233 pbc="F F F"
Ne       0.00000000       0.00000000       0.00000000       0.00000000       0.00000000       0.00245897
Ne       0.00000000       0.00000000       2.94303030       0.00000000       0.00000000      -0.00245897
2
Properties=species:S:1:pos:R:3:forces:R:3 energy=-0.02781204734407242 pbc="F F F"
Ne       0.00000000       0.00000000       0.00000000       0.00000000       0.00000000       0.00250106
Ne       0.00000000       0.00000000       3.00181818       0.00000000       0.00000000      -0.00250106
2
Properties=species:S:1:pos:R:3:forces:R:3 energy=-0.027664279322652433 pbc="F F F"
Ne       0.00000000       0.00000000       0.00000000       0.00000000       0.00000000       0.00252274
Ne       0.00000000       0.00000000       3.06060606       0.00000000       0.00000000      -0.00252274
2
Properties=species:S:1:pos:R:3:forces:R:3 energy=-0.027515824350358046 pbc="F F F"
Ne       0.00000000       0.00000000       0.00000000       0.00000000       0.00000000       0.00252452
Ne       0.00000000       0.00000000       3.11939394       0.00000000       0.00000000      -0.00252452
2
Properties=species:S:1:pos:R:3:forces:R:3 energy=-0.027367823881838487 pbc="F F F"
Ne       0.00000000       0.00000000       0.00000000       0.00000000       0.00000000       0.00250745
Ne       0.00000000       0.00000000       3.17818182       0.00000000       0.00000000      -0.00250745
2
Properties=species:S:1:pos:R:3:forces:R:3 energy=-0.027221347567026828 pbc="F F F"
Ne       0.00000000       0.00000000       0.00000000       0.00000000       0.00000000       0.00247304
Ne       0.00000000       0.00000000       3.23696970       0.00000000       0.00000000      -0.00247304
2
Properties=species:S:1:pos:R:3:forces:R:3 energy=-0.027077359116306696 pbc="F F F"
Ne       0.00000000       0.00000000       0.00000000       0.00000000       0.00000000       0.00242310
Ne       0.00000000       0.00000000       3.29575758       0.00000000       0.00000000      -0.00242310
2
Properties=species:S:1:pos:R:3:forces:R:3 energy=-0.0269367156777953 pbc="F F F"
Ne       0.00000000       0.00000000       0.00000000       0.00000000       0.00000000       0.00235966
Ne       0.00000000       0.00000000       3.35454545       0.00000000       0.00000000      -0.00235966
2
Properties=species:S:1:pos:R:3:forces:R:3 energy=-0.02680014431316471 pbc="F F F"
Ne       0.00000000       0.00000000       0.00000000       0.00000000       0.00000000       0.00228481
Ne       0.00000000       0.00000000       3.41333333       0.00000000       0.00000000      -0.00228481
2
Properties=species:S:1:pos:R:3:forces:R:3 energy=-0.02666825999362821 pbc="F F F"
Ne       0.00000000       0.00000000       0.00000000       0.00000000       0.00000000       0.00220057
Ne       0.00000000       0.00000000       3.47212121       0.00000000       0.00000000      -0.00220057
2
Properties=species:S:1:pos:R:3:forces:R:3 energy=-0.026541558032115983 pbc="F F F"
Ne       0.00000000       0.00000000       0.00000000       0.00000000       0.00000000       0.00210880
Ne       0.00000000       0.00000000       3.53090909       0.00000000       0.00000000      -0.00210880
2
Properties=species:S:1:pos:R:3:forces:R:3 energy=-0.02642043208976252 pbc="F F F"
Ne       0.00000000       0.00000000       0.00000000       0.00000000       0.00000000       0.00201114
Ne       0.00000000       0.00000000       3.58969697       0.00000000       0.00000000      -0.00201114
2
Properties=species:S:1:pos:R:3:forces:R:3 energy=-0.026305183345891252 pbc="F F F"
Ne       0.00000000       0.00000000       0.00000000       0.00000000       0.00000000       0.00190901
Ne       0.00000000       0.00000000       3.64848485       0.00000000       0.00000000      -0.00190901
2
Properties=species:S:1:pos:R:3:forces:R:3 energy=-0.026196040872620355 pbc="F F F"
Ne       0.00000000       0.00000000       0.00000000       0.00000000       0.00000000       0.00180363
Ne       0.00000000       0.00000000       3.70727273       0.00000000       0.00000000      -0.00180363
2
Properties=species:S:1:pos:R:3:forces:R:3 energy=-0.02609316267955494 pbc="F F F"
Ne       0.00000000       0.00000000       0.00000000       0.00000000       0.00000000       0.00169606
Ne       0.00000000       0.00000000       3.76606061       0.00000000       0.00000000      -0.00169606
2
Properties=species:S:1:pos:R:3:forces:R:3 energy=-0.02599665079744074 pbc="F F F"
Ne       0.00000000       0.00000000       0.00000000       0.00000000       0.00000000       0.00158725
Ne       0.00000000       0.00000000       3.82484848       0.00000000       0.00000000      -0.00158725
2
Properties=species:S:1:pos:R:3:forces:R:3 energy=-0.025906546591679732 pbc="F F F"
Ne       0.00000000       0.00000000       0.00000000       0.00000000       0.00000000       0.00147815
Ne       0.00000000       0.00000000       3.88363636       0.00000000       0.00000000      -0.00147815
2
Properties=species:S:1:pos:R:3:forces:R:3 energy=-0.02582284226393465 pbc="F F F"
Ne       0.00000000       0.00000000       0.00000000       0.00000000       0.00000000       0.00136970
Ne       0.00000000       0.00000000       3.94242424       0.00000000       0.00000000      -0.00136970
2
Properties=species:S:1:pos:R:3:forces:R:3 energy=-0.025745471450409875 pbc="F F F"
Ne       0.00000000       0.00000000       0.00000000       0.00000000       0.00000000       0.00126286
Ne       0.00000000       0.00000000       4.00121212       0.00000000       0.00000000      -0.00126286
2
Properties=species:S:1:pos:R:3:forces:R:3 energy=-0.025674311639467075 pbc="F F F"
Ne       0.00000000       0.00000000       0.00000000       0.00000000       0.00000000       0.00115858
Ne       0.00000000       0.00000000       4.06000000       0.00000000       0.00000000      -0.00115858
2
Properties=species:S:1:pos:R:3:forces:R:3 energy=-0.02560918271020836 pbc="F F F"
Ne       0.00000000       0.00000000       0.00000000       0.00000000       0.00000000       0.00105775
Ne       0.00000000       0.00000000       4.11878788       0.00000000       0.00000000      -0.00105775
2
Properties=species:S:1:pos:R:3:forces:R:3 energy=-0.025549862172369826 pbc="F F F"
Ne       0.00000000       0.00000000       0.00000000       0.00000000       0.00000000       0.00096113
Ne       0.00000000       0.00000000       4.17757576       0.00000000       0.00000000      -0.00096113
2
Properties=species:S:1:pos:R:3:forces:R:3 energy=-0.025496082318982545 pbc="F F F"
Ne       0.00000000       0.00000000       0.00000000       0.00000000       0.00000000       0.00086933
Ne       0.00000000       0.00000000       4.23636364       0.00000000       0.00000000      -0.00086933
2
Properties=species:S:1:pos:R:3:forces:R:3 energy=-0.025447546203473864 pbc="F F F"
Ne       0.00000000       0.00000000       0.00000000       0.00000000       0.00000000       0.00078280
Ne       0.00000000       0.00000000       4.29515152       0.00000000       0.00000000      -0.00078280
2
Properties=species:S:1:pos:R:3:forces:R:3 energy=-0.025403935374232644 pbc="F F F"
Ne       0.00000000       0.00000000       0.00000000       0.00000000       0.00000000       0.00070185
Ne       0.00000000       0.00000000       4.35393939       0.00000000       0.00000000      -0.00070185
2
Properties=species:S:1:pos:R:3:forces:R:3 energy=-0.025364910716061995 pbc="F F F"
Ne       0.00000000       0.00000000       0.00000000       0.00000000       0.00000000       0.00062675
Ne       0.00000000       0.00000000       4.41272727       0.00000000       0.00000000      -0.00062675
2
Properties=species:S:1:pos:R:3:forces:R:3 energy=-0.025330126168657704 pbc="F F F"
Ne       0.00000000       0.00000000       0.00000000       0.00000000       0.00000000       0.00055773
Ne       0.00000000       0.00000000       4.47151515       0.00000000       0.00000000      -0.00055773
2
Properties=species:S:1:pos:R:3:forces:R:3 energy=-0.02529921097285748 pbc="F F F"
Ne       0.00000000       0.00000000       0.00000000       0.00000000       0.00000000       0.00049510
Ne       0.00000000       0.00000000       4.53030303       0.00000000       0.00000000      -0.00049510
2
Properties=species:S:1:pos:R:3:forces:R:3 energy=-0.025271780468783322 pbc="F F F"
Ne       0.00000000       0.00000000       0.00000000       0.00000000       0.00000000       0.00043926
Ne       0.00000000       0.00000000       4.58909091       0.00000000       0.00000000      -0.00043926
2
Properties=species:S:1:pos:R:3:forces:R:3 energy=-0.02524742436900183 pbc="F F F"
Ne       0.00000000       0.00000000       0.00000000       0.00000000       0.00000000       0.00039060
Ne       0.00000000       0.00000000       4.64787879       0.00000000       0.00000000      -0.00039060
2
Properties=species:S:1:pos:R:3:forces:R:3 energy=-0.025225708652417328 pbc="F F F"
Ne       0.00000000       0.00000000       0.00000000       0.00000000       0.00000000       0.00034948
Ne       0.00000000       0.00000000       4.70666667       0.00000000       0.00000000      -0.00034948
2
Properties=species:S:1:pos:R:3:forces:R:3 energy=-0.025206184252282996 pbc="F F F"
Ne       0.00000000       0.00000000       0.00000000       0.00000000       0.00000000       0.00031602
Ne       0.00000000       0.00000000       4.76545455       0.00000000       0.00000000      -0.00031602
2
Properties=species:S:1:pos:R:3:forces:R:3 energy=-0.025188408541741276 pbc="F F F"
Ne       0.00000000       0.00000000       0.00000000       0.00000000       0.00000000       0.00028990
Ne       0.00000000       0.00000000       4.82424242       0.00000000       0.00000000      -0.00028990
2
Properties=species:S:1:pos:R:3:forces:R:3 energy=-0.02517197329824973 pbc="F F F"
Ne       0.00000000       0.00000000       0.00000000       0.00000000       0.00000000       0.00027013
Ne       0.00000000       0.00000000       4.88303030       0.00000000       0.00000000      -0.00027013
2
Properties=species:S:1:pos:R:3:forces:R:3 energy=-0.02515655693839042 pbc="F F F"
Ne       0.00000000       0.00000000       0.00000000       0.00000000       0.00000000       0.00025490
Ne       0.00000000       0.00000000       4.94181818       0.00000000       0.00000000      -0.00025490
2
Properties=species:S:1:pos:R:3:forces:R:3 energy=-0.025141967754686082 pbc="F F F"
Ne       0.00000000       0.00000000       0.00000000       0.00000000       0.00000000       0.00024155
Ne       0.00000000       0.00000000       5.00060606       0.00000000       0.00000000      -0.00024155
2
Properties=species:S:1:pos:R:3:forces:R:3 energy=-0.025128177146229513 pbc="F F F"
Ne       0.00000000       0.00000000       0.00000000       0.00000000       0.00000000       0.00022723
Ne       0.00000000       0.00000000       5.05939394       0.00000000       0.00000000      -0.00022723
2
Properties=species:S:1:pos:R:3:forces:R:3 energy=-0.025115299185583487 pbc="F F F"
Ne       0.00000000       0.00000000       0.00000000       0.00000000       0.00000000       0.00021056
Ne       0.00000000       0.00000000       5.11818182       0.00000000       0.00000000      -0.00021056
2
Properties=species:S:1:pos:R:3:forces:R:3 energy=-0.025103415629131196 pbc="F F F"
Ne       0.00000000       0.00000000       0.00000000       0.00000000       0.00000000       0.00019441
Ne       0.00000000       0.00000000       5.17696970       0.00000000       0.00000000      -0.00019441
2
Properties=species:S:1:pos:R:3:forces:R:3 energy=-0.02509227012153981 pbc="F F F"
Ne       0.00000000       0.00000000       0.00000000       0.00000000       0.00000000       0.00018703
Ne       0.00000000       0.00000000       5.23575758       0.00000000       0.00000000      -0.00018703
2
Properties=species:S:1:pos:R:3:forces:R:3 energy=-0.02508109344772207 pbc="F F F"
Ne       0.00000000       0.00000000       0.00000000       0.00000000       0.00000000       0.00019611
Ne       0.00000000       0.00000000       5.29454545       0.00000000       0.00000000      -0.00019611
2
Properties=species:S:1:pos:R:3:forces:R:3 energy=-0.025068961581431317 pbc="F F F"
Ne       0.00000000       0.00000000       0.00000000       0.00000000       0.00000000       0.00021758
Ne       0.00000000       0.00000000       5.35333333       0.00000000       0.00000000      -0.00021758
2
Properties=species:S:1:pos:R:3:forces:R:3 energy=-0.025055562006124108 pbc="F F F"
Ne       0.00000000       0.00000000       0.00000000       0.00000000       0.00000000       0.00023685
Ne       0.00000000       0.00000000       5.41212121       0.00000000       0.00000000      -0.00023685
2
Properties=species:S:1:pos:R:3:forces:R:3 energy=-0.025041314217676868 pbc="F F F"
Ne       0.00000000       0.00000000       0.00000000       0.00000000       0.00000000       0.00024650
Ne       0.00000000       0.00000000       5.47090909       0.00000000       0.00000000      -0.00024650
2
Properties=species:S:1:pos:R:3:forces:R:3 energy=-0.025026622692312317 pbc="F F F"
Ne       0.00000000       0.00000000       0.00000000       0.00000000       0.00000000       0.00025409
Ne       0.00000000       0.00000000       5.52969697       0.00000000       0.00000000      -0.00025409
2
Properties=species:S:1:pos:R:3:forces:R:3 energy=-0.025011237430095225 pbc="F F F"
Ne       0.00000000       0.00000000       0.00000000       0.00000000       0.00000000       0.00027149
Ne       0.00000000       0.00000000       5.58848485       0.00000000       0.00000000      -0.00027149
2
Properties=species:S:1:pos:R:3:forces:R:3 energy=-0.02499451980584225 pbc="F F F"
Ne       0.00000000       0.00000000       0.00000000       0.00000000       0.00000000       0.00029762
Ne       0.00000000       0.00000000       5.64727273       0.00000000       0.00000000      -0.00029762
2
Properties=species:S:1:pos:R:3:forces:R:3 energy=-0.02497648902921525 pbc="F F F"
Ne       0.00000000       0.00000000       0.00000000       0.00000000       0.00000000       0.00031126
Ne       0.00000000       0.00000000       5.70606061       0.00000000       0.00000000      -0.00031126
2
Properties=species:S:1:pos:R:3:forces:R:3 energy=-0.024958608020108283 pbc="F F F"
Ne       0.00000000       0.00000000       0.00000000       0.00000000       0.00000000       0.00028955
Ne       0.00000000       0.00000000       5.76484848       0.00000000       0.00000000      -0.00028955
2
Properties=species:S:1:pos:R:3:forces:R:3 energy=-0.024943127324454417 pbc="F F F"
Ne       0.00000000       0.00000000       0.00000000       0.00000000       0.00000000       0.00023296
Ne       0.00000000       0.00000000       5.82363636       0.00000000       0.00000000      -0.00023296
2
Properties=species:S:1:pos:R:3:forces:R:3 energy=-0.024931477137928253 pbc="F F F"
Ne       0.00000000       0.00000000       0.00000000       0.00000000       0.00000000       0.00016454
Ne       0.00000000       0.00000000       5.88242424       0.00000000       0.00000000      -0.00016454
2
Properties=species:S:1:pos:R:3:forces:R:3 energy=-0.02492350568206878 pbc="F F F"
Ne       0.00000000       0.00000000       0.00000000       0.00000000       0.00000000       0.00011029
Ne       0.00000000       0.00000000       5.94121212       0.00000000       0.00000000      -0.00011029
2
Properties=species:S:1:pos:R:3:forces:R:3 energy=-0.02491790322534807 pbc="F F F"
Ne       0.00000000       0.00000000       0.00000000       0.00000000       0.00000000       0.00008638
Ne       0.00000000       0.00000000       6.00000000       0.00000000       0.00000000      -0.00008638
