2
Properties=species:S:1:pos:R:3:forces:R:3 energy=3821.1401075874937 pbc="F F F"
Ni       0.00000000       0.00000000       0.00000000       0.00000000       0.00000000  -59120.75000000
Ni       0.00000000       0.00000000       0.18000000       0.00000000       0.00000000   59120.75000000
2
Properties=species:S:1:pos:R:3:forces:R:3 energy=1673.3362745796812 pbc="F F F"
Ni       0.00000000       0.00000000       0.00000000       0.00000000       0.00000000  -21445.54101562
Ni       0.00000000       0.00000000       0.23878788       0.00000000       0.00000000   21445.54101562
2
Properties=species:S:1:pos:R:3:forces:R:3 energy=833.4924025093688 pbc="F F F"
Ni       0.00000000       0.00000000       0.00000000       0.00000000       0.00000000   -9153.06152344
Ni       0.00000000       0.00000000       0.29757576       0.00000000       0.00000000    9153.06152344
2
Properties=species:S:1:pos:R:3:forces:R:3 energy=457.19290300081786 pbc="F F F"
Ni       0.00000000       0.00000000       0.00000000       0.00000000       0.00000000   -4332.19824219
Ni       0.00000000       0.00000000       0.35636364       0.00000000       0.00000000    4332.19824219
2
Properties=species:S:1:pos:R:3:forces:R:3 energy=273.270661796216 pbc="F F F"
Ni       0.00000000       0.00000000       0.00000000       0.00000000       0.00000000   -2193.85644531
Ni       0.00000000       0.00000000       0.41515152       0.00000000       0.00000000    2193.85644531
2
Properties=species:S:1:pos:R:3:forces:R:3 energy=178.14898822807075 pbc="F F F"
Ni       0.00000000       0.00000000       0.00000000       0.00000000       0.00000000   -1160.04101562
Ni       0.00000000       0.00000000       0.47393939       0.00000000       0.00000000    1160.04101562
2
Properties=species:S:1:pos:R:3:forces:R:3 energy=127.27432394994052 pbc="F F F"
Ni       0.00000000       0.00000000       0.00000000       0.00000000       0.00000000    -626.68493652
Ni       0.00000000       0.00000000       0.53272727       0.00000000       0.00000000     626.68493652
2
Properties=species:S:1:pos:R:3:forces:R:3 energy=99.73050838466489 pbc="F F F"
Ni       0.00000000       0.00000000       0.00000000       0.00000000       0.00000000    -339.22778320
Ni       0.00000000       0.00000000       0.59151515       0.00000000       0.00000000     339.22778320
2
Properties=species:S:1:pos:R:3:forces:R:3 energy=84.85170140232499 pbc="F F F"
Ni       0.00000000       0.00000000       0.00000000       0.00000000       0.00000000    -183.10977173
Ni       0.00000000       0.00000000       0.65030303       0.00000000       0.00000000     183.10977173
2
Properties=species:S:1:pos:R:3:forces:R:3 energy=76.71138933738148 pbc="F F F"
Ni       0.00000000       0.00000000       0.00000000       0.00000000       0.00000000    -103.90141296
Ni       0.00000000       0.00000000       0.70909091       0.00000000       0.00000000     103.90141296
2
Properties=species:S:1:pos:R:3:forces:R:3 energy=71.6545658033177 pbc="F F F"
Ni       0.00000000       0.00000000       0.00000000       0.00000000       0.00000000     -75.07106018
Ni       0.00000000       0.00000000       0.76787879       0.00000000       0.00000000      75.07106018
2
Properties=species:S:1:pos:R:3:forces:R:3 energy=67.21319036233547 pbc="F F F"
Ni       0.00000000       0.00000000       0.00000000       0.00000000       0.00000000     -80.50842285
Ni       0.00000000       0.00000000       0.82666667       0.00000000       0.00000000      80.50842285
2
Properties=species:S:1:pos:R:3:forces:R:3 energy=61.816515664289064 pbc="F F F"
Ni       0.00000000       0.00000000       0.00000000       0.00000000       0.00000000    -104.87921906
Ni       0.00000000       0.00000000       0.88545455       0.00000000       0.00000000     104.87921906
2
Properties=species:S:1:pos:R:3:forces:R:3 energy=54.83452924765662 pbc="F F F"
Ni       0.00000000       0.00000000       0.00000000       0.00000000       0.00000000    -131.75154114
Ni       0.00000000       0.00000000       0.94424242       0.00000000       0.00000000     131.75154114
2
Properties=species:S:1:pos:R:3:forces:R:3 energy=46.55585878446718 pbc="F F F"
Ni       0.00000000       0.00000000       0.00000000       0.00000000       0.00000000    -147.08848572
Ni       0.00000000       0.00000000       1.00303030       0.00000000       0.00000000     147.08848572
2
Properties=species:S:1:pos:R:3:forces:R:3 energy=37.926541627389845 pbc="F F F"
Ni       0.00000000       0.00000000       0.00000000       0.00000000       0.00000000    -143.08883667
Ni       0.00000000       0.00000000       1.06181818       0.00000000       0.00000000     143.08883667
2
Properties=species:S:1:pos:R:3:forces:R:3 energy=30.039746107951515 pbc="F F F"
Ni       0.00000000       0.00000000       0.00000000       0.00000000       0.00000000    -123.98645782
Ni       0.00000000       0.00000000       1.12060606       0.00000000       0.00000000     123.98645782
2
Properties=species:S:1:pos:R:3:forces:R:3 energy=23.32326201246502 pbc="F F F"
Ni       0.00000000       0.00000000       0.00000000       0.00000000       0.00000000    -105.65415955
Ni       0.00000000       0.00000000       1.17939394       0.00000000       0.00000000     105.65415955
2
Properties=species:S:1:pos:R:3:forces:R:3 energy=17.492291770675816 pbc="F F F"
Ni       0.00000000       0.00000000       0.00000000       0.00000000       0.00000000     -93.22201538
Ni       0.00000000       0.00000000       1.23818182       0.00000000       0.00000000      93.22201538
2
Properties=species:S:1:pos:R:3:forces:R:3 energy=12.388037285187714 pbc="F F F"
Ni       0.00000000       0.00000000       0.00000000       0.00000000       0.00000000     -79.73136902
Ni       0.00000000       0.00000000       1.29696970       0.00000000       0.00000000      79.73136902
2
Properties=species:S:1:pos:R:3:forces:R:3 energy=8.191171347289375 pbc="F F F"
Ni       0.00000000       0.00000000       0.00000000       0.00000000       0.00000000     -62.78242111
Ni       0.00000000       0.00000000       1.35575758       0.00000000       0.00000000      62.78242111
2
Properties=species:S:1:pos:R:3:forces:R:3 energy=4.985606933119956 pbc="F F F"
Ni       0.00000000       0.00000000       0.00000000       0.00000000       0.00000000     -46.77450562
Ni       0.00000000       0.00000000       1.41454545       0.00000000       0.00000000      46.77450562
2
Properties=species:S:1:pos:R:3:forces:R:3 energy=2.6188458956426865 pbc="F F F"
Ni       0.00000000       0.00000000       0.00000000       0.00000000       0.00000000     -34.38902283
Ni       0.00000000       0.00000000       1.47333333       0.00000000       0.00000000      34.38902283
2
Properties=species:S:1:pos:R:3:forces:R:3 energy=0.8717264352863031 pbc="F F F"
Ni       0.00000000       0.00000000       0.00000000       0.00000000       0.00000000     -25.58003616
Ni       0.00000000       0.00000000       1.53212121       0.00000000       0.00000000      25.58003616
2
Properties=species:S:1:pos:R:3:forces:R:3 energy=-0.4408783996432953 pbc="F F F"
Ni       0.00000000       0.00000000       0.00000000       0.00000000       0.00000000     -19.43117142
Ni       0.00000000       0.00000000       1.59090909       0.00000000       0.00000000      19.43117142
2
Properties=species:S:1:pos:R:3:forces:R:3 energy=-1.445769561912253 pbc="F F F"
Ni       0.00000000       0.00000000       0.00000000       0.00000000       0.00000000     -14.97058487
Ni       0.00000000       0.00000000       1.64969697       0.00000000       0.00000000      14.97058487
2
Properties=species:S:1:pos:R:3:forces:R:3 energy=-2.2206168244423177 pbc="F F F"
Ni       0.00000000       0.00000000       0.00000000       0.00000000       0.00000000     -11.51900864
Ni       0.00000000       0.00000000       1.70848485       0.00000000       0.00000000      11.51900864
2
Properties=species:S:1:pos:R:3:forces:R:3 energy=-2.8124482066526633 pbc="F F F"
Ni       0.00000000       0.00000000       0.00000000       0.00000000       0.00000000      -8.70300674
Ni       0.00000000       0.00000000       1.76727273       0.00000000       0.00000000       8.70300674
2
Properties=species:S:1:pos:R:3:forces:R:3 energy=-3.252997736018369 pbc="F F F"
Ni       0.00000000       0.00000000       0.00000000       0.00000000       0.00000000      -6.35550880
Ni       0.00000000       0.00000000       1.82606061       0.00000000       0.00000000       6.35550880
2
Properties=species:S:1:pos:R:3:forces:R:3 energy=-3.567616449530895 pbc="F F F"
Ni       0.00000000       0.00000000       0.00000000       0.00000000       0.00000000      -4.41316366
Ni       0.00000000       0.00000000       1.88484848       0.00000000       0.00000000       4.41316366
2
Properties=species:S:1:pos:R:3:forces:R:3 energy=-3.779394501756074 pbc="F F F"
Ni       0.00000000       0.00000000       0.00000000       0.00000000       0.00000000      -2.85410976
Ni       0.00000000       0.00000000       1.94363636       0.00000000       0.00000000       2.85410976
2
Properties=species:S:1:pos:R:3:forces:R:3 energy=-3.910221739950533 pbc="F F F"
Ni       0.00000000       0.00000000       0.00000000       0.00000000       0.00000000      -1.65293896
Ni       0.00000000       0.00000000       2.00242424       0.00000000       0.00000000       1.65293896
2
Properties=species:S:1:pos:R:3:forces:R:3 energy=-3.9797649223422975 pbc="F F F"
Ni       0.00000000       0.00000000       0.00000000       0.00000000       0.00000000      -0.75873053
Ni       0.00000000       0.00000000       2.06121212       0.00000000       0.00000000       0.75873053
2
Properties=species:S:1:pos:R:3:forces:R:3 energy=-4.004165532301967 pbc="F F F"
Ni       0.00000000       0.00000000       0.00000000       0.00000000       0.00000000      -0.10638710
Ni       0.00000000       0.00000000       2.12000000       0.00000000       0.00000000       0.10638710
2
Properties=species:S:1:pos:R:3:forces:R:3 energy=-3.9958633160945225 pbc="F F F"
Ni       0.00000000       0.00000000       0.00000000       0.00000000       0.00000000       0.36215785
Ni       0.00000000       0.00000000       2.17878788       0.00000000       0.00000000      -0.36215785
2
Properties=species:S:1:pos:R:3:forces:R:3 energy=-3.9643709677698546 pbc="F F F"
Ni       0.00000000       0.00000000       0.00000000       0.00000000       0.00000000       0.68795091
Ni       0.00000000       0.00000000       2.23757576       0.00000000       0.00000000      -0.68795091
2
Properties=species:S:1:pos:R:3:forces:R:3 energy=-3.917251927003687 pbc="F F F"
Ni       0.00000000       0.00000000       0.00000000       0.00000000       0.00000000       0.89775431
Ni       0.00000000       0.00000000       2.29636364       0.00000000       0.00000000      -0.89775431
2
Properties=species:S:1:pos:R:3:forces:R:3 energy=-3.860464560820279 pbc="F F F"
Ni       0.00000000       0.00000000       0.00000000       0.00000000       0.00000000       1.02523398
Ni       0.00000000       0.00000000       2.35515152       0.00000000       0.00000000      -1.02523398
2
Properties=species:S:1:pos:R:3:forces:R:3 energy=-3.7968705689582745 pbc="F F F"
Ni       0.00000000       0.00000000       0.00000000       0.00000000       0.00000000       1.14426327
Ni       0.00000000       0.00000000       2.41393939       0.00000000       0.00000000      -1.14426327
2
Properties=species:S:1:pos:R:3:forces:R:3 energy=-3.7250288518646086 pbc="F F F"
Ni       0.00000000       0.00000000       0.00000000       0.00000000       0.00000000       1.30345786
Ni       0.00000000       0.00000000       2.47272727       0.00000000       0.00000000      -1.30345786
2
Properties=species:S:1:pos:R:3:forces:R:3 energy=-3.64408880154835 pbc="F F F"
Ni       0.00000000       0.00000000       0.00000000       0.00000000       0.00000000       1.44037211
Ni       0.00000000       0.00000000       2.53151515       0.00000000       0.00000000      -1.44037211
2
Properties=species:S:1:pos:R:3:forces:R:3 energy=-3.5569335769947648 pbc="F F F"
Ni       0.00000000       0.00000000       0.00000000       0.00000000       0.00000000       1.51535761
Ni       0.00000000       0.00000000       2.59030303       0.00000000       0.00000000      -1.51535761
2
Properties=species:S:1:pos:R:3:forces:R:3 energy=-3.4667574653838114 pbc="F F F"
Ni       0.00000000       0.00000000       0.00000000       0.00000000       0.00000000       1.54722893
Ni       0.00000000       0.00000000       2.64909091       0.00000000       0.00000000      -1.54722893
2
Properties=species:S:1:pos:R:3:forces:R:3 energy=-3.3755157774634803 pbc="F F F"
Ni       0.00000000       0.00000000       0.00000000       0.00000000       0.00000000       1.55315721
Ni       0.00000000       0.00000000       2.70787879       0.00000000       0.00000000      -1.55315721
2
Properties=species:S:1:pos:R:3:forces:R:3 energy=-3.2845688601266323 pbc="F F F"
Ni       0.00000000       0.00000000       0.00000000       0.00000000       0.00000000       1.53725433
Ni       0.00000000       0.00000000       2.76666667       0.00000000       0.00000000      -1.53725433
2
Properties=species:S:1:pos:R:3:forces:R:3 energy=-3.19521154689687 pbc="F F F"
Ni       0.00000000       0.00000000       0.00000000       0.00000000       0.00000000       1.49898148
Ni       0.00000000       0.00000000       2.82545455       0.00000000       0.00000000      -1.49898148
2
Properties=species:S:1:pos:R:3:forces:R:3 energy=-3.1087501746413033 pbc="F F F"
Ni       0.00000000       0.00000000       0.00000000       0.00000000       0.00000000       1.43910253
Ni       0.00000000       0.00000000       2.88424242       0.00000000       0.00000000      -1.43910253
2
Properties=species:S:1:pos:R:3:forces:R:3 energy=-3.0263540151083297 pbc="F F F"
Ni       0.00000000       0.00000000       0.00000000       0.00000000       0.00000000       1.36163676
Ni       0.00000000       0.00000000       2.94303030       0.00000000       0.00000000      -1.36163676
2
Properties=species:S:1:pos:R:3:forces:R:3 energy=-2.9488695259293825 pbc="F F F"
Ni       0.00000000       0.00000000       0.00000000       0.00000000       0.00000000       1.27323902
Ni       0.00000000       0.00000000       3.00181818       0.00000000       0.00000000      -1.27323902
2
Properties=species:S:1:pos:R:3:forces:R:3 energy=-2.8767183671761476 pbc="F F F"
Ni       0.00000000       0.00000000       0.00000000       0.00000000       0.00000000       1.18143404
Ni       0.00000000       0.00000000       3.06060606       0.00000000       0.00000000      -1.18143404
2
Properties=species:S:1:pos:R:3:forces:R:3 energy=-2.80989808794605 pbc="F F F"
Ni       0.00000000       0.00000000       0.00000000       0.00000000       0.00000000       1.09283948
Ni       0.00000000       0.00000000       3.11939394       0.00000000       0.00000000      -1.09283948
2
Properties=species:S:1:pos:R:3:forces:R:3 energy=-2.7480720758589237 pbc="F F F"
Ni       0.00000000       0.00000000       0.00000000       0.00000000       0.00000000       1.01204169
Ni       0.00000000       0.00000000       3.17818182       0.00000000       0.00000000      -1.01204169
2
Properties=species:S:1:pos:R:3:forces:R:3 energy=-2.6907082556495086 pbc="F F F"
Ni       0.00000000       0.00000000       0.00000000       0.00000000       0.00000000       0.94127899
Ni       0.00000000       0.00000000       3.23696970       0.00000000       0.00000000      -0.94127899
2
Properties=species:S:1:pos:R:3:forces:R:3 energy=-2.637200494909369 pbc="F F F"
Ni       0.00000000       0.00000000       0.00000000       0.00000000       0.00000000       0.88070643
Ni       0.00000000       0.00000000       3.29575758       0.00000000       0.00000000      -0.88070643
2
Properties=species:S:1:pos:R:3:forces:R:3 energy=-2.5869844398383743 pbc="F F F"
Ni       0.00000000       0.00000000       0.00000000       0.00000000       0.00000000       0.82897544
Ni       0.00000000       0.00000000       3.35454545       0.00000000       0.00000000      -0.82897544
2
Properties=species:S:1:pos:R:3:forces:R:3 energy=-2.5396031437103956 pbc="F F F"
Ni       0.00000000       0.00000000       0.00000000       0.00000000       0.00000000       0.78384972
Ni       0.00000000       0.00000000       3.41333333       0.00000000       0.00000000      -0.78384972
2
Properties=species:S:1:pos:R:3:forces:R:3 energy=-2.494742298138117 pbc="F F F"
Ni       0.00000000       0.00000000       0.00000000       0.00000000       0.00000000       0.74281996
Ni       0.00000000       0.00000000       3.47212121       0.00000000       0.00000000      -0.74281996
2
Properties=species:S:1:pos:R:3:forces:R:3 energy=-2.452230195059171 pbc="F F F"
Ni       0.00000000       0.00000000       0.00000000       0.00000000       0.00000000       0.70363152
Ni       0.00000000       0.00000000       3.53090909       0.00000000       0.00000000      -0.70363152
2
Properties=species:S:1:pos:R:3:forces:R:3 energy=-2.412008616662816 pbc="F F F"
Ni       0.00000000       0.00000000       0.00000000       0.00000000       0.00000000       0.66467947
Ni       0.00000000       0.00000000       3.58969697       0.00000000       0.00000000      -0.66467947
2
Properties=species:S:1:pos:R:3:forces:R:3 energy=-2.3740906669796535 pbc="F F F"
Ni       0.00000000       0.00000000       0.00000000       0.00000000       0.00000000       0.62520486
Ni       0.00000000       0.00000000       3.64848485       0.00000000       0.00000000      -0.62520486
2
Properties=species:S:1:pos:R:3:forces:R:3 energy=-2.3385098770185895 pbc="F F F"
Ni       0.00000000       0.00000000       0.00000000       0.00000000       0.00000000       0.58523887
Ni       0.00000000       0.00000000       3.70727273       0.00000000       0.00000000      -0.58523887
2
Properties=species:S:1:pos:R:3:forces:R:3 energy=-2.3052786122281157 pbc="F F F"
Ni       0.00000000       0.00000000       0.00000000       0.00000000       0.00000000       0.54538465
Ni       0.00000000       0.00000000       3.76606061       0.00000000       0.00000000      -0.54538465
2
Properties=species:S:1:pos:R:3:forces:R:3 energy=-2.2743665411323652 pbc="F F F"
Ni       0.00000000       0.00000000       0.00000000       0.00000000       0.00000000       0.50650704
Ni       0.00000000       0.00000000       3.82484848       0.00000000       0.00000000      -0.50650704
2
Properties=species:S:1:pos:R:3:forces:R:3 energy=-2.2456895540348745 pbc="F F F"
Ni       0.00000000       0.00000000       0.00000000       0.00000000       0.00000000       0.46944934
Ni       0.00000000       0.00000000       3.88363636       0.00000000       0.00000000      -0.46944934
2
Properties=species:S:1:pos:R:3:forces:R:3 energy=-2.2191218906878962 pbc="F F F"
Ni       0.00000000       0.00000000       0.00000000       0.00000000       0.00000000       0.43485853
Ni       0.00000000       0.00000000       3.94242424       0.00000000       0.00000000      -0.43485853
2
Properties=species:S:1:pos:R:3:forces:R:3 energy=-2.194505575665256 pbc="F F F"
Ni       0.00000000       0.00000000       0.00000000       0.00000000       0.00000000       0.40310240
Ni       0.00000000       0.00000000       4.00121212       0.00000000       0.00000000      -0.40310240
2
Properties=species:S:1:pos:R:3:forces:R:3 energy=-2.171669114045925 pbc="F F F"
Ni       0.00000000       0.00000000       0.00000000       0.00000000       0.00000000       0.37429008
Ni       0.00000000       0.00000000       4.06000000       0.00000000       0.00000000      -0.37429008
2
Properties=species:S:1:pos:R:3:forces:R:3 energy=-2.1504421213104643 pbc="F F F"
Ni       0.00000000       0.00000000       0.00000000       0.00000000       0.00000000       0.34833455
Ni       0.00000000       0.00000000       4.11878788       0.00000000       0.00000000      -0.34833455
2
Properties=species:S:1:pos:R:3:forces:R:3 energy=-2.1306618089919063 pbc="F F F"
Ni       0.00000000       0.00000000       0.00000000       0.00000000       0.00000000       0.32501328
Ni       0.00000000       0.00000000       4.17757576       0.00000000       0.00000000      -0.32501328
2
Properties=species:S:1:pos:R:3:forces:R:3 energy=-2.1121820992666587 pbc="F F F"
Ni       0.00000000       0.00000000       0.00000000       0.00000000       0.00000000       0.30403212
Ni       0.00000000       0.00000000       4.23636364       0.00000000       0.00000000      -0.30403212
2
Properties=species:S:1:pos:R:3:forces:R:3 energy=-2.0948752852130084 pbc="F F F"
Ni       0.00000000       0.00000000       0.00000000       0.00000000       0.00000000       0.28505886
Ni       0.00000000       0.00000000       4.29515152       0.00000000       0.00000000      -0.28505886
2
Properties=species:S:1:pos:R:3:forces:R:3 energy=-2.0786336173777995 pbc="F F F"
Ni       0.00000000       0.00000000       0.00000000       0.00000000       0.00000000       0.26776290
Ni       0.00000000       0.00000000       4.35393939       0.00000000       0.00000000      -0.26776290
2
Properties=species:S:1:pos:R:3:forces:R:3 energy=-2.063366256683896 pbc="F F F"
Ni       0.00000000       0.00000000       0.00000000       0.00000000       0.00000000       0.25184795
Ni       0.00000000       0.00000000       4.41272727       0.00000000       0.00000000      -0.25184795
2
Properties=species:S:1:pos:R:3:forces:R:3 energy=-2.0489993567935567 pbc="F F F"
Ni       0.00000000       0.00000000       0.00000000       0.00000000       0.00000000       0.23709407
Ni       0.00000000       0.00000000       4.47151515       0.00000000       0.00000000      -0.23709407
2
Properties=species:S:1:pos:R:3:forces:R:3 energy=-2.035469171808362 pbc="F F F"
Ni       0.00000000       0.00000000       0.00000000       0.00000000       0.00000000       0.22337237
Ni       0.00000000       0.00000000       4.53030303       0.00000000       0.00000000      -0.22337237
2
Properties=species:S:1:pos:R:3:forces:R:3 energy=-2.0227170241364774 pbc="F F F"
Ni       0.00000000       0.00000000       0.00000000       0.00000000       0.00000000       0.21063668
Ni       0.00000000       0.00000000       4.58909091       0.00000000       0.00000000      -0.21063668
2
Properties=species:S:1:pos:R:3:forces:R:3 energy=-2.0106845856382716 pbc="F F F"
Ni       0.00000000       0.00000000       0.00000000       0.00000000       0.00000000       0.19887944
Ni       0.00000000       0.00000000       4.64787879       0.00000000       0.00000000      -0.19887944
2
Properties=species:S:1:pos:R:3:forces:R:3 energy=-1.9993150400408615 pbc="F F F"
Ni       0.00000000       0.00000000       0.00000000       0.00000000       0.00000000       0.18805674
Ni       0.00000000       0.00000000       4.70666667       0.00000000       0.00000000      -0.18805674
2
Properties=species:S:1:pos:R:3:forces:R:3 energy=-1.9885576857510256 pbc="F F F"
Ni       0.00000000       0.00000000       0.00000000       0.00000000       0.00000000       0.17804819
Ni       0.00000000       0.00000000       4.76545455       0.00000000       0.00000000      -0.17804819
2
Properties=species:S:1:pos:R:3:forces:R:3 energy=-1.9783686162648957 pbc="F F F"
Ni       0.00000000       0.00000000       0.00000000       0.00000000       0.00000000       0.16865064
Ni       0.00000000       0.00000000       4.82424242       0.00000000       0.00000000      -0.16865064
2
Properties=species:S:1:pos:R:3:forces:R:3 energy=-1.968720568189611 pbc="F F F"
Ni       0.00000000       0.00000000       0.00000000       0.00000000       0.00000000       0.15967022
Ni       0.00000000       0.00000000       4.88303030       0.00000000       0.00000000      -0.15967022
2
Properties=species:S:1:pos:R:3:forces:R:3 energy=-1.9595885812825269 pbc="F F F"
Ni       0.00000000       0.00000000       0.00000000       0.00000000       0.00000000       0.15106182
Ni       0.00000000       0.00000000       4.94181818       0.00000000       0.00000000      -0.15106182
2
Properties=species:S:1:pos:R:3:forces:R:3 energy=-1.9509470098834643 pbc="F F F"
Ni       0.00000000       0.00000000       0.00000000       0.00000000       0.00000000       0.14307952
Ni       0.00000000       0.00000000       5.00060606       0.00000000       0.00000000      -0.14307952
2
Properties=species:S:1:pos:R:3:forces:R:3 energy=-1.9427426112936195 pbc="F F F"
Ni       0.00000000       0.00000000       0.00000000       0.00000000       0.00000000       0.13626726
Ni       0.00000000       0.00000000       5.05939394       0.00000000       0.00000000      -0.13626726
2
Properties=species:S:1:pos:R:3:forces:R:3 energy=-1.9348912764395942 pbc="F F F"
Ni       0.00000000       0.00000000       0.00000000       0.00000000       0.00000000       0.13116626
Ni       0.00000000       0.00000000       5.11818182       0.00000000       0.00000000      -0.13116626
2
Properties=species:S:1:pos:R:3:forces:R:3 energy=-1.9272886755141607 pbc="F F F"
Ni       0.00000000       0.00000000       0.00000000       0.00000000       0.00000000       0.12767969
Ni       0.00000000       0.00000000       5.17696970       0.00000000       0.00000000      -0.12767969
2
Properties=species:S:1:pos:R:3:forces:R:3 energy=-1.919873306603186 pbc="F F F"
Ni       0.00000000       0.00000000       0.00000000       0.00000000       0.00000000       0.12446573
Ni       0.00000000       0.00000000       5.23575758       0.00000000       0.00000000      -0.12446573
2
Properties=species:S:1:pos:R:3:forces:R:3 energy=-1.9126957626185053 pbc="F F F"
Ni       0.00000000       0.00000000       0.00000000       0.00000000       0.00000000       0.11916767
Ni       0.00000000       0.00000000       5.29454545       0.00000000       0.00000000      -0.11916767
2
Properties=species:S:1:pos:R:3:forces:R:3 energy=-1.9059412915319995 pbc="F F F"
Ni       0.00000000       0.00000000       0.00000000       0.00000000       0.00000000       0.10987926
Ni       0.00000000       0.00000000       5.35333333       0.00000000       0.00000000      -0.10987926
2
Properties=species:S:1:pos:R:3:forces:R:3 energy=-1.899859615366181 pbc="F F F"
Ni       0.00000000       0.00000000       0.00000000       0.00000000       0.00000000       0.09641872
Ni       0.00000000       0.00000000       5.41212121       0.00000000       0.00000000      -0.09641872
2
Properties=species:S:1:pos:R:3:forces:R:3 energy=-1.8946629203044718 pbc="F F F"
Ni       0.00000000       0.00000000       0.00000000       0.00000000       0.00000000       0.08000849
Ni       0.00000000       0.00000000       5.47090909       0.00000000       0.00000000      -0.08000849
2
Properties=species:S:1:pos:R:3:forces:R:3 energy=-1.8904776909705319 pbc="F F F"
Ni       0.00000000       0.00000000       0.00000000       0.00000000       0.00000000       0.06228229
Ni       0.00000000       0.00000000       5.52969697       0.00000000       0.00000000      -0.06228229
2
Properties=species:S:1:pos:R:3:forces:R:3 energy=-1.8873332821755737 pbc="F F F"
Ni       0.00000000       0.00000000       0.00000000       0.00000000       0.00000000       0.04491153
Ni       0.00000000       0.00000000       5.58848485       0.00000000       0.00000000      -0.04491153
2
Properties=species:S:1:pos:R:3:forces:R:3 energy=-1.8851514601791033 pbc="F F F"
Ni       0.00000000       0.00000000       0.00000000       0.00000000       0.00000000       0.02992891
Ni       0.00000000       0.00000000       5.64727273       0.00000000       0.00000000      -0.02992891
2
Properties=species:S:1:pos:R:3:forces:R:3 energy=-1.8837273735521016 pbc="F F F"
Ni       0.00000000       0.00000000       0.00000000       0.00000000       0.00000000       0.01935917
Ni       0.00000000       0.00000000       5.70606061       0.00000000       0.00000000      -0.01935917
2
Properties=species:S:1:pos:R:3:forces:R:3 energy=-1.882777165200888 pbc="F F F"
Ni       0.00000000       0.00000000       0.00000000       0.00000000       0.00000000       0.01369139
Ni       0.00000000       0.00000000       5.76484848       0.00000000       0.00000000      -0.01369139
2
Properties=species:S:1:pos:R:3:forces:R:3 energy=-1.882050269101788 pbc="F F F"
Ni       0.00000000       0.00000000       0.00000000       0.00000000       0.00000000       0.01143187
Ni       0.00000000       0.00000000       5.82363636       0.00000000       0.00000000      -0.01143187
2
Properties=species:S:1:pos:R:3:forces:R:3 energy=-1.881404516905283 pbc="F F F"
Ni       0.00000000       0.00000000       0.00000000       0.00000000       0.00000000       0.01065565
Ni       0.00000000       0.00000000       5.88242424       0.00000000       0.00000000      -0.01065565
2
Properties=species:S:1:pos:R:3:forces:R:3 energy=-1.88079105854486 pbc="F F F"
Ni       0.00000000       0.00000000       0.00000000       0.00000000       0.00000000       0.01022549
Ni       0.00000000       0.00000000       5.94121212       0.00000000       0.00000000      -0.01022549
2
Properties=species:S:1:pos:R:3:forces:R:3 energy=-1.8802041386961525 pbc="F F F"
Ni       0.00000000       0.00000000       0.00000000       0.00000000       0.00000000       0.00971282
Ni       0.00000000       0.00000000       6.00000000       0.00000000       0.00000000      -0.00971282
