2
Properties=species:S:1:pos:R:3:forces:R:3 energy=1524.5123011023984 pbc="F F F"
P        0.00000000       0.00000000       0.00000000       0.00000000       0.00000000  -21842.12109375
P        0.00000000       0.00000000       0.18000000       0.00000000       0.00000000   21842.12109375
2
Properties=species:S:1:pos:R:3:forces:R:3 energy=712.0809656531796 pbc="F F F"
P        0.00000000       0.00000000       0.00000000       0.00000000       0.00000000   -8359.81542969
P        0.00000000       0.00000000       0.23878788       0.00000000       0.00000000    8359.81542969
2
Properties=species:S:1:pos:R:3:forces:R:3 energy=378.12246955942965 pbc="F F F"
P        0.00000000       0.00000000       0.00000000       0.00000000       0.00000000   -3733.03784180
P        0.00000000       0.00000000       0.29757576       0.00000000       0.00000000    3733.03784180
2
Properties=species:S:1:pos:R:3:forces:R:3 energy=221.76182808944094 pbc="F F F"
P        0.00000000       0.00000000       0.00000000       0.00000000       0.00000000   -1842.13610840
P        0.00000000       0.00000000       0.35636364       0.00000000       0.00000000    1842.13610840
2
Properties=species:S:1:pos:R:3:forces:R:3 energy=142.2428003953191 pbc="F F F"
P        0.00000000       0.00000000       0.00000000       0.00000000       0.00000000    -966.87274170
P        0.00000000       0.00000000       0.41515152       0.00000000       0.00000000     966.87274170
2
Properties=species:S:1:pos:R:3:forces:R:3 energy=99.79747267454391 pbc="F F F"
P        0.00000000       0.00000000       0.00000000       0.00000000       0.00000000    -524.52386475
P        0.00000000       0.00000000       0.47393939       0.00000000       0.00000000     524.52386475
2
Properties=species:S:1:pos:R:3:forces:R:3 energy=76.63127401059943 pbc="F F F"
P        0.00000000       0.00000000       0.00000000       0.00000000       0.00000000    -286.90881348
P        0.00000000       0.00000000       0.53272727       0.00000000       0.00000000     286.90881348
2
Properties=species:S:1:pos:R:3:forces:R:3 energy=64.07820405944948 pbc="F F F"
P        0.00000000       0.00000000       0.00000000       0.00000000       0.00000000    -152.49601746
P        0.00000000       0.00000000       0.59151515       0.00000000       0.00000000     152.49601746
2
Properties=species:S:1:pos:R:3:forces:R:3 energy=57.54394826807349 pbc="F F F"
P        0.00000000       0.00000000       0.00000000       0.00000000       0.00000000     -78.05620575
P        0.00000000       0.00000000       0.65030303       0.00000000       0.00000000      78.05620575
2
Properties=species:S:1:pos:R:3:forces:R:3 energy=54.042487543131685 pbc="F F F"
P        0.00000000       0.00000000       0.00000000       0.00000000       0.00000000     -47.36513519
P        0.00000000       0.00000000       0.70909091       0.00000000       0.00000000      47.36513519
2
Properties=species:S:1:pos:R:3:forces:R:3 energy=51.39093008010261 pbc="F F F"
P        0.00000000       0.00000000       0.00000000       0.00000000       0.00000000     -46.38851929
P        0.00000000       0.00000000       0.76787879       0.00000000       0.00000000      46.38851929
2
Properties=species:S:1:pos:R:3:forces:R:3 energy=48.31792508491484 pbc="F F F"
P        0.00000000       0.00000000       0.00000000       0.00000000       0.00000000     -59.38705063
P        0.00000000       0.00000000       0.82666667       0.00000000       0.00000000      59.38705063
2
Properties=species:S:1:pos:R:3:forces:R:3 energy=44.36493457500836 pbc="F F F"
P        0.00000000       0.00000000       0.00000000       0.00000000       0.00000000     -74.74263000
P        0.00000000       0.00000000       0.88545455       0.00000000       0.00000000      74.74263000
2
Properties=species:S:1:pos:R:3:forces:R:3 energy=39.61605745816798 pbc="F F F"
P        0.00000000       0.00000000       0.00000000       0.00000000       0.00000000     -86.03090668
P        0.00000000       0.00000000       0.94424242       0.00000000       0.00000000      86.03090668
2
Properties=species:S:1:pos:R:3:forces:R:3 energy=34.326985389426895 pbc="F F F"
P        0.00000000       0.00000000       0.00000000       0.00000000       0.00000000     -93.16341400
P        0.00000000       0.00000000       1.00303030       0.00000000       0.00000000      93.16341400
2
Properties=species:S:1:pos:R:3:forces:R:3 energy=28.781459505483735 pbc="F F F"
P        0.00000000       0.00000000       0.00000000       0.00000000       0.00000000     -94.53947449
P        0.00000000       0.00000000       1.06181818       0.00000000       0.00000000      94.53947449
2
Properties=species:S:1:pos:R:3:forces:R:3 energy=23.230595782686734 pbc="F F F"
P        0.00000000       0.00000000       0.00000000       0.00000000       0.00000000     -94.93106842
P        0.00000000       0.00000000       1.12060606       0.00000000       0.00000000      94.93106842
2
Properties=species:S:1:pos:R:3:forces:R:3 energy=17.581174673032077 pbc="F F F"
P        0.00000000       0.00000000       0.00000000       0.00000000       0.00000000     -96.54094696
P        0.00000000       0.00000000       1.17939394       0.00000000       0.00000000      96.54094696
2
Properties=species:S:1:pos:R:3:forces:R:3 energy=12.08185746486966 pbc="F F F"
P        0.00000000       0.00000000       0.00000000       0.00000000       0.00000000     -88.60086060
P        0.00000000       0.00000000       1.23818182       0.00000000       0.00000000      88.60086060
2
Properties=species:S:1:pos:R:3:forces:R:3 energy=7.297674070763385 pbc="F F F"
P        0.00000000       0.00000000       0.00000000       0.00000000       0.00000000     -73.96931458
P        0.00000000       0.00000000       1.29696970       0.00000000       0.00000000      73.96931458
2
Properties=species:S:1:pos:R:3:forces:R:3 energy=3.347368722986775 pbc="F F F"
P        0.00000000       0.00000000       0.00000000       0.00000000       0.00000000     -60.89505768
P        0.00000000       0.00000000       1.35575758       0.00000000       0.00000000      60.89505768
2
Properties=species:S:1:pos:R:3:forces:R:3 energy=0.09624749234403818 pbc="F F F"
P        0.00000000       0.00000000       0.00000000       0.00000000       0.00000000     -49.91638565
P        0.00000000       0.00000000       1.41454545       0.00000000       0.00000000      49.91638565
2
Properties=species:S:1:pos:R:3:forces:R:3 energy=-2.535121191488181 pbc="F F F"
P        0.00000000       0.00000000       0.00000000       0.00000000       0.00000000     -39.69067001
P        0.00000000       0.00000000       1.47333333       0.00000000       0.00000000      39.69067001
2
Properties=species:S:1:pos:R:3:forces:R:3 energy=-4.585444049465078 pbc="F F F"
P        0.00000000       0.00000000       0.00000000       0.00000000       0.00000000     -30.24936485
P        0.00000000       0.00000000       1.53212121       0.00000000       0.00000000      30.24936485
2
Properties=species:S:1:pos:R:3:forces:R:3 energy=-6.119293293994977 pbc="F F F"
P        0.00000000       0.00000000       0.00000000       0.00000000       0.00000000     -22.19458199
P        0.00000000       0.00000000       1.59090909       0.00000000       0.00000000      22.19458199
2
Properties=species:S:1:pos:R:3:forces:R:3 energy=-7.225565249657613 pbc="F F F"
P        0.00000000       0.00000000       0.00000000       0.00000000       0.00000000     -15.68947315
P        0.00000000       0.00000000       1.64969697       0.00000000       0.00000000      15.68947315
2
Properties=species:S:1:pos:R:3:forces:R:3 energy=-7.9907817163618535 pbc="F F F"
P        0.00000000       0.00000000       0.00000000       0.00000000       0.00000000     -10.54918194
P        0.00000000       0.00000000       1.70848485       0.00000000       0.00000000      10.54918194
2
Properties=species:S:1:pos:R:3:forces:R:3 energy=-8.487231788826431 pbc="F F F"
P        0.00000000       0.00000000       0.00000000       0.00000000       0.00000000      -6.49737930
P        0.00000000       0.00000000       1.76727273       0.00000000       0.00000000       6.49737930
2
Properties=species:S:1:pos:R:3:forces:R:3 energy=-8.770494166356412 pbc="F F F"
P        0.00000000       0.00000000       0.00000000       0.00000000       0.00000000      -3.25415015
P        0.00000000       0.00000000       1.82606061       0.00000000       0.00000000       3.25415015
2
Properties=species:S:1:pos:R:3:forces:R:3 energy=-8.881932435356426 pbc="F F F"
P        0.00000000       0.00000000       0.00000000       0.00000000       0.00000000      -0.63309908
P        0.00000000       0.00000000       1.88484848       0.00000000       0.00000000       0.63309908
2
Properties=species:S:1:pos:R:3:forces:R:3 energy=-8.856031272366065 pbc="F F F"
P        0.00000000       0.00000000       0.00000000       0.00000000       0.00000000       1.42040193
P        0.00000000       0.00000000       1.94363636       0.00000000       0.00000000      -1.42040193
2
Properties=species:S:1:pos:R:3:forces:R:3 energy=-8.725777964870923 pbc="F F F"
P        0.00000000       0.00000000       0.00000000       0.00000000       0.00000000       2.92195439
P        0.00000000       0.00000000       2.00242424       0.00000000       0.00000000      -2.92195439
2
Properties=species:S:1:pos:R:3:forces:R:3 energy=-8.5223047200775 pbc="F F F"
P        0.00000000       0.00000000       0.00000000       0.00000000       0.00000000       3.92324543
P        0.00000000       0.00000000       2.06121212       0.00000000       0.00000000      -3.92324543
2
Properties=species:S:1:pos:R:3:forces:R:3 energy=-8.272627731192195 pbc="F F F"
P        0.00000000       0.00000000       0.00000000       0.00000000       0.00000000       4.51035929
P        0.00000000       0.00000000       2.12000000       0.00000000       0.00000000      -4.51035929
2
Properties=species:S:1:pos:R:3:forces:R:3 energy=-7.998059068930007 pbc="F F F"
P        0.00000000       0.00000000       0.00000000       0.00000000       0.00000000       4.78842783
P        0.00000000       0.00000000       2.17878788       0.00000000       0.00000000      -4.78842783
2
Properties=species:S:1:pos:R:3:forces:R:3 energy=-7.7134620709496895 pbc="F F F"
P        0.00000000       0.00000000       0.00000000       0.00000000       0.00000000       4.87031651
P        0.00000000       0.00000000       2.23757576       0.00000000       0.00000000      -4.87031651
2
Properties=species:S:1:pos:R:3:forces:R:3 energy=-7.427252289192412 pbc="F F F"
P        0.00000000       0.00000000       0.00000000       0.00000000       0.00000000       4.85807657
P        0.00000000       0.00000000       2.29636364       0.00000000       0.00000000      -4.85807657
2
Properties=species:S:1:pos:R:3:forces:R:3 energy=-7.142730739247394 pbc="F F F"
P        0.00000000       0.00000000       0.00000000       0.00000000       0.00000000       4.82071638
P        0.00000000       0.00000000       2.35515152       0.00000000       0.00000000      -4.82071638
2
Properties=species:S:1:pos:R:3:forces:R:3 energy=-6.860469646535098 pbc="F F F"
P        0.00000000       0.00000000       0.00000000       0.00000000       0.00000000       4.78108835
P        0.00000000       0.00000000       2.41393939       0.00000000       0.00000000      -4.78108835
2
Properties=species:S:1:pos:R:3:forces:R:3 energy=-6.580933921108977 pbc="F F F"
P        0.00000000       0.00000000       0.00000000       0.00000000       0.00000000       4.72328424
P        0.00000000       0.00000000       2.47272727       0.00000000       0.00000000      -4.72328424
2
Properties=species:S:1:pos:R:3:forces:R:3 energy=-6.30610456476777 pbc="F F F"
P        0.00000000       0.00000000       0.00000000       0.00000000       0.00000000       4.61589336
P        0.00000000       0.00000000       2.53151515       0.00000000       0.00000000      -4.61589336
2
Properties=species:S:1:pos:R:3:forces:R:3 energy=-6.039658097883492 pbc="F F F"
P        0.00000000       0.00000000       0.00000000       0.00000000       0.00000000       4.43585014
P        0.00000000       0.00000000       2.59030303       0.00000000       0.00000000      -4.43585014
2
Properties=species:S:1:pos:R:3:forces:R:3 energy=-5.786048362448193 pbc="F F F"
P        0.00000000       0.00000000       0.00000000       0.00000000       0.00000000       4.18033361
P        0.00000000       0.00000000       2.64909091       0.00000000       0.00000000      -4.18033361
2
Properties=species:S:1:pos:R:3:forces:R:3 energy=-5.549333395983272 pbc="F F F"
P        0.00000000       0.00000000       0.00000000       0.00000000       0.00000000       3.86460471
P        0.00000000       0.00000000       2.70787879       0.00000000       0.00000000      -3.86460471
2
Properties=species:S:1:pos:R:3:forces:R:3 energy=-5.3323754725386685 pbc="F F F"
P        0.00000000       0.00000000       0.00000000       0.00000000       0.00000000       3.51243019
P        0.00000000       0.00000000       2.76666667       0.00000000       0.00000000      -3.51243019
2
Properties=species:S:1:pos:R:3:forces:R:3 energy=-5.136610867012591 pbc="F F F"
P        0.00000000       0.00000000       0.00000000       0.00000000       0.00000000       3.14721537
P        0.00000000       0.00000000       2.82545455       0.00000000       0.00000000      -3.14721537
2
Properties=species:S:1:pos:R:3:forces:R:3 energy=-4.962220631870674 pbc="F F F"
P        0.00000000       0.00000000       0.00000000       0.00000000       0.00000000       2.78795218
P        0.00000000       0.00000000       2.88424242       0.00000000       0.00000000      -2.78795218
2
Properties=species:S:1:pos:R:3:forces:R:3 energy=-4.808420474358969 pbc="F F F"
P        0.00000000       0.00000000       0.00000000       0.00000000       0.00000000       2.44861126
P        0.00000000       0.00000000       2.94303030       0.00000000       0.00000000      -2.44861126
2
Properties=species:S:1:pos:R:3:forces:R:3 energy=-4.673757204586298 pbc="F F F"
P        0.00000000       0.00000000       0.00000000       0.00000000       0.00000000       2.13801217
P        0.00000000       0.00000000       3.00181818       0.00000000       0.00000000      -2.13801217
2
Properties=species:S:1:pos:R:3:forces:R:3 energy=-4.556393400150619 pbc="F F F"
P        0.00000000       0.00000000       0.00000000       0.00000000       0.00000000       1.86048436
P        0.00000000       0.00000000       3.06060606       0.00000000       0.00000000      -1.86048436
2
Properties=species:S:1:pos:R:3:forces:R:3 energy=-4.454332446147599 pbc="F F F"
P        0.00000000       0.00000000       0.00000000       0.00000000       0.00000000       1.61740601
P        0.00000000       0.00000000       3.11939394       0.00000000       0.00000000      -1.61740601
2
Properties=species:S:1:pos:R:3:forces:R:3 energy=-4.365568816690702 pbc="F F F"
P        0.00000000       0.00000000       0.00000000       0.00000000       0.00000000       1.40772927
P        0.00000000       0.00000000       3.17818182       0.00000000       0.00000000      -1.40772927
2
Properties=species:S:1:pos:R:3:forces:R:3 energy=-4.2882280004064635 pbc="F F F"
P        0.00000000       0.00000000       0.00000000       0.00000000       0.00000000       1.22812510
P        0.00000000       0.00000000       3.23696970       0.00000000       0.00000000      -1.22812510
2
Properties=species:S:1:pos:R:3:forces:R:3 energy=-4.220676735124048 pbc="F F F"
P        0.00000000       0.00000000       0.00000000       0.00000000       0.00000000       1.07378924
P        0.00000000       0.00000000       3.29575758       0.00000000       0.00000000      -1.07378924
2
Properties=species:S:1:pos:R:3:forces:R:3 energy=-4.161581202359619 pbc="F F F"
P        0.00000000       0.00000000       0.00000000       0.00000000       0.00000000       0.93964863
P        0.00000000       0.00000000       3.35454545       0.00000000       0.00000000      -0.93964863
2
Properties=species:S:1:pos:R:3:forces:R:3 energy=-4.109887677749931 pbc="F F F"
P        0.00000000       0.00000000       0.00000000       0.00000000       0.00000000       0.82133454
P        0.00000000       0.00000000       3.41333333       0.00000000       0.00000000      -0.82133454
2
Properties=species:S:1:pos:R:3:forces:R:3 energy=-4.0647647890869845 pbc="F F F"
P        0.00000000       0.00000000       0.00000000       0.00000000       0.00000000       0.71564716
P        0.00000000       0.00000000       3.47212121       0.00000000       0.00000000      -0.71564716
2
Properties=species:S:1:pos:R:3:forces:R:3 energy=-4.025538118943485 pbc="F F F"
P        0.00000000       0.00000000       0.00000000       0.00000000       0.00000000       0.62051946
P        0.00000000       0.00000000       3.53090909       0.00000000       0.00000000      -0.62051946
2
Properties=species:S:1:pos:R:3:forces:R:3 energy=-3.9916245515366535 pbc="F F F"
P        0.00000000       0.00000000       0.00000000       0.00000000       0.00000000       0.53472143
P        0.00000000       0.00000000       3.58969697       0.00000000       0.00000000      -0.53472143
2
Properties=species:S:1:pos:R:3:forces:R:3 energy=-3.962498833106599 pbc="F F F"
P        0.00000000       0.00000000       0.00000000       0.00000000       0.00000000       0.45755154
P        0.00000000       0.00000000       3.64848485       0.00000000       0.00000000      -0.45755154
2
Properties=species:S:1:pos:R:3:forces:R:3 energy=-3.9376672278312888 pbc="F F F"
P        0.00000000       0.00000000       0.00000000       0.00000000       0.00000000       0.38858303
P        0.00000000       0.00000000       3.70727273       0.00000000       0.00000000      -0.38858303
2
Properties=species:S:1:pos:R:3:forces:R:3 energy=-3.9166558479874585 pbc="F F F"
P        0.00000000       0.00000000       0.00000000       0.00000000       0.00000000       0.32752207
P        0.00000000       0.00000000       3.76606061       0.00000000       0.00000000      -0.32752207
2
Properties=species:S:1:pos:R:3:forces:R:3 energy=-3.8990078824585996 pbc="F F F"
P        0.00000000       0.00000000       0.00000000       0.00000000       0.00000000       0.27413860
P        0.00000000       0.00000000       3.82484848       0.00000000       0.00000000      -0.27413860
2
Properties=species:S:1:pos:R:3:forces:R:3 energy=-3.884277572914042 pbc="F F F"
P        0.00000000       0.00000000       0.00000000       0.00000000       0.00000000       0.22821195
P        0.00000000       0.00000000       3.88363636       0.00000000       0.00000000      -0.22821195
2
Properties=species:S:1:pos:R:3:forces:R:3 energy=-3.872033893873775 pbc="F F F"
P        0.00000000       0.00000000       0.00000000       0.00000000       0.00000000       0.18950537
P        0.00000000       0.00000000       3.94242424       0.00000000       0.00000000      -0.18950537
2
Properties=species:S:1:pos:R:3:forces:R:3 energy=-3.8618610858144136 pbc="F F F"
P        0.00000000       0.00000000       0.00000000       0.00000000       0.00000000       0.15771191
P        0.00000000       0.00000000       4.00121212       0.00000000       0.00000000      -0.15771191
2
Properties=species:S:1:pos:R:3:forces:R:3 energy=-3.8533635748442494 pbc="F F F"
P        0.00000000       0.00000000       0.00000000       0.00000000       0.00000000       0.13242507
P        0.00000000       0.00000000       4.06000000       0.00000000       0.00000000      -0.13242507
2
Properties=species:S:1:pos:R:3:forces:R:3 energy=-3.8461741637141453 pbc="F F F"
P        0.00000000       0.00000000       0.00000000       0.00000000       0.00000000       0.11310787
P        0.00000000       0.00000000       4.11878788       0.00000000       0.00000000      -0.11310787
2
Properties=species:S:1:pos:R:3:forces:R:3 energy=-3.839961122602377 pbc="F F F"
P        0.00000000       0.00000000       0.00000000       0.00000000       0.00000000       0.09907634
P        0.00000000       0.00000000       4.17757576       0.00000000       0.00000000      -0.09907634
2
Properties=species:S:1:pos:R:3:forces:R:3 energy=-3.834437406659751 pbc="F F F"
P        0.00000000       0.00000000       0.00000000       0.00000000       0.00000000       0.08951092
P        0.00000000       0.00000000       4.23636364       0.00000000       0.00000000      -0.08951092
2
Properties=species:S:1:pos:R:3:forces:R:3 energy=-3.829367022035247 pbc="F F F"
P        0.00000000       0.00000000       0.00000000       0.00000000       0.00000000       0.08348553
P        0.00000000       0.00000000       4.29515152       0.00000000       0.00000000      -0.08348553
2
Properties=species:S:1:pos:R:3:forces:R:3 energy=-3.824571280195956 pbc="F F F"
P        0.00000000       0.00000000       0.00000000       0.00000000       0.00000000       0.08002166
P        0.00000000       0.00000000       4.35393939       0.00000000       0.00000000      -0.08002166
2
Properties=species:S:1:pos:R:3:forces:R:3 energy=-3.819927285052234 pbc="F F F"
P        0.00000000       0.00000000       0.00000000       0.00000000       0.00000000       0.07815661
P        0.00000000       0.00000000       4.41272727       0.00000000       0.00000000      -0.07815661
2
Properties=species:S:1:pos:R:3:forces:R:3 energy=-3.815367783238142 pbc="F F F"
P        0.00000000       0.00000000       0.00000000       0.00000000       0.00000000       0.07701506
P        0.00000000       0.00000000       4.47151515       0.00000000       0.00000000      -0.07701506
2
Properties=species:S:1:pos:R:3:forces:R:3 energy=-3.8108723473757524 pbc="F F F"
P        0.00000000       0.00000000       0.00000000       0.00000000       0.00000000       0.07586792
P        0.00000000       0.00000000       4.53030303       0.00000000       0.00000000      -0.07586792
2
Properties=species:S:1:pos:R:3:forces:R:3 energy=-3.8064588690340315 pbc="F F F"
P        0.00000000       0.00000000       0.00000000       0.00000000       0.00000000       0.07415681
P        0.00000000       0.00000000       4.58909091       0.00000000       0.00000000      -0.07415681
2
Properties=species:S:1:pos:R:3:forces:R:3 energy=-3.802172173241755 pbc="F F F"
P        0.00000000       0.00000000       0.00000000       0.00000000       0.00000000       0.07150197
P        0.00000000       0.00000000       4.64787879       0.00000000       0.00000000      -0.07150197
2
Properties=species:S:1:pos:R:3:forces:R:3 energy=-3.7980747518411424 pbc="F F F"
P        0.00000000       0.00000000       0.00000000       0.00000000       0.00000000       0.06767991
P        0.00000000       0.00000000       4.70666667       0.00000000       0.00000000      -0.06767991
2
Properties=species:S:1:pos:R:3:forces:R:3 energy=-3.794239003380701 pbc="F F F"
P        0.00000000       0.00000000       0.00000000       0.00000000       0.00000000       0.06262205
P        0.00000000       0.00000000       4.76545455       0.00000000       0.00000000      -0.06262205
2
Properties=species:S:1:pos:R:3:forces:R:3 energy=-3.7907343870223533 pbc="F F F"
P        0.00000000       0.00000000       0.00000000       0.00000000       0.00000000       0.05642602
P        0.00000000       0.00000000       4.82424242       0.00000000       0.00000000      -0.05642602
2
Properties=species:S:1:pos:R:3:forces:R:3 energy=-3.7876210818583753 pbc="F F F"
P        0.00000000       0.00000000       0.00000000       0.00000000       0.00000000       0.04941128
P        0.00000000       0.00000000       4.88303030       0.00000000       0.00000000      -0.04941128
2
Properties=species:S:1:pos:R:3:forces:R:3 energy=-3.784929713412621 pbc="F F F"
P        0.00000000       0.00000000       0.00000000       0.00000000       0.00000000       0.04216138
P        0.00000000       0.00000000       4.94181818       0.00000000       0.00000000      -0.04216138
2
Properties=species:S:1:pos:R:3:forces:R:3 energy=-3.782651684600817 pbc="F F F"
P        0.00000000       0.00000000       0.00000000       0.00000000       0.00000000       0.03551709
P        0.00000000       0.00000000       5.00060606       0.00000000       0.00000000      -0.03551709
2
Properties=species:S:1:pos:R:3:forces:R:3 energy=-3.7807244183292834 pbc="F F F"
P        0.00000000       0.00000000       0.00000000       0.00000000       0.00000000       0.03035827
P        0.00000000       0.00000000       5.05939394       0.00000000       0.00000000      -0.03035827
2
Properties=species:S:1:pos:R:3:forces:R:3 energy=-3.7790442534810023 pbc="F F F"
P        0.00000000       0.00000000       0.00000000       0.00000000       0.00000000       0.02710842
P        0.00000000       0.00000000       5.11818182       0.00000000       0.00000000      -0.02710842
2
Properties=species:S:1:pos:R:3:forces:R:3 energy=-3.7775125008830734 pbc="F F F"
P        0.00000000       0.00000000       0.00000000       0.00000000       0.00000000       0.02506929
P        0.00000000       0.00000000       5.17696970       0.00000000       0.00000000      -0.02506929
2
Properties=species:S:1:pos:R:3:forces:R:3 energy=-3.776109636626281 pbc="F F F"
P        0.00000000       0.00000000       0.00000000       0.00000000       0.00000000       0.02237470
P        0.00000000       0.00000000       5.23575758       0.00000000       0.00000000      -0.02237470
2
Properties=species:S:1:pos:R:3:forces:R:3 energy=-3.774925316671526 pbc="F F F"
P        0.00000000       0.00000000       0.00000000       0.00000000       0.00000000       0.01755702
P        0.00000000       0.00000000       5.29454545       0.00000000       0.00000000      -0.01755702
2
Properties=species:S:1:pos:R:3:forces:R:3 energy=-3.7740699952289574 pbc="F F F"
P        0.00000000       0.00000000       0.00000000       0.00000000       0.00000000       0.01153816
P        0.00000000       0.00000000       5.35333333       0.00000000       0.00000000      -0.01153816
2
Properties=species:S:1:pos:R:3:forces:R:3 energy=-3.7735480595433786 pbc="F F F"
P        0.00000000       0.00000000       0.00000000       0.00000000       0.00000000       0.00649246
P        0.00000000       0.00000000       5.41212121       0.00000000       0.00000000      -0.00649246
2
Properties=species:S:1:pos:R:3:forces:R:3 energy=-3.7732819339294026 pbc="F F F"
P        0.00000000       0.00000000       0.00000000       0.00000000       0.00000000       0.00262245
P        0.00000000       0.00000000       5.47090909       0.00000000       0.00000000      -0.00262245
2
Properties=species:S:1:pos:R:3:forces:R:3 energy=-3.773257997089574 pbc="F F F"
P        0.00000000       0.00000000       0.00000000       0.00000000       0.00000000      -0.00217984
P        0.00000000       0.00000000       5.52969697       0.00000000       0.00000000       0.00217984
2
Properties=species:S:1:pos:R:3:forces:R:3 energy=-3.773597881544831 pbc="F F F"
P        0.00000000       0.00000000       0.00000000       0.00000000       0.00000000      -0.00992303
P        0.00000000       0.00000000       5.58848485       0.00000000       0.00000000       0.00992303
2
Properties=species:S:1:pos:R:3:forces:R:3 energy=-3.774462859072774 pbc="F F F"
P        0.00000000       0.00000000       0.00000000       0.00000000       0.00000000      -0.01948880
P        0.00000000       0.00000000       5.64727273       0.00000000       0.00000000       0.01948880
2
Properties=species:S:1:pos:R:3:forces:R:3 energy=-3.7758275854358767 pbc="F F F"
P        0.00000000       0.00000000       0.00000000       0.00000000       0.00000000      -0.02591375
P        0.00000000       0.00000000       5.70606061       0.00000000       0.00000000       0.02591375
2
Properties=species:S:1:pos:R:3:forces:R:3 energy=-3.777363286365104 pbc="F F F"
P        0.00000000       0.00000000       0.00000000       0.00000000       0.00000000      -0.02485650
P        0.00000000       0.00000000       5.76484848       0.00000000       0.00000000       0.02485650
2
Properties=species:S:1:pos:R:3:forces:R:3 energy=-3.778617990522356 pbc="F F F"
P        0.00000000       0.00000000       0.00000000       0.00000000       0.00000000      -0.01707616
P        0.00000000       0.00000000       5.82363636       0.00000000       0.00000000       0.01707616
2
Properties=species:S:1:pos:R:3:forces:R:3 energy=-3.7793245607609807 pbc="F F F"
P        0.00000000       0.00000000       0.00000000       0.00000000       0.00000000      -0.00715127
P        0.00000000       0.00000000       5.88242424       0.00000000       0.00000000       0.00715127
2
Properties=species:S:1:pos:R:3:forces:R:3 energy=-3.779505138886441 pbc="F F F"
P        0.00000000       0.00000000       0.00000000       0.00000000       0.00000000       0.00041373
P        0.00000000       0.00000000       5.94121212       0.00000000       0.00000000      -0.00041373
2
Properties=species:S:1:pos:R:3:forces:R:3 energy=-3.779374323162577 pbc="F F F"
P        0.00000000       0.00000000       0.00000000       0.00000000       0.00000000       0.00307396
P        0.00000000       0.00000000       6.00000000       0.00000000       0.00000000      -0.00307396
