2
Properties=species:S:1:pos:R:3:forces:R:3 energy=10853.475693257402 pbc="F F F"
Pr       0.00000000       0.00000000       0.00000000       0.00000000       0.00000000 -185313.89062500
Pr       0.00000000       0.00000000       0.18000000       0.00000000       0.00000000  185313.89062500
2
Properties=species:S:1:pos:R:3:forces:R:3 energy=4316.958603413652 pbc="F F F"
Pr       0.00000000       0.00000000       0.00000000       0.00000000       0.00000000  -62685.30078125
Pr       0.00000000       0.00000000       0.23878788       0.00000000       0.00000000   62685.30078125
2
Properties=species:S:1:pos:R:3:forces:R:3 energy=1932.638779194902 pbc="F F F"
Pr       0.00000000       0.00000000       0.00000000       0.00000000       0.00000000  -24974.84765625
Pr       0.00000000       0.00000000       0.29757576       0.00000000       0.00000000   24974.84765625
2
Properties=species:S:1:pos:R:3:forces:R:3 energy=937.0272679771045 pbc="F F F"
Pr       0.00000000       0.00000000       0.00000000       0.00000000       0.00000000  -11012.44335938
Pr       0.00000000       0.00000000       0.35636364       0.00000000       0.00000000   11012.44335938
2
Properties=species:S:1:pos:R:3:forces:R:3 energy=483.4455113853077 pbc="F F F"
Pr       0.00000000       0.00000000       0.00000000       0.00000000       0.00000000   -5213.99169922
Pr       0.00000000       0.00000000       0.41515152       0.00000000       0.00000000    5213.99169922
2
Properties=species:S:1:pos:R:3:forces:R:3 energy=263.0894322837452 pbc="F F F"
Pr       0.00000000       0.00000000       0.00000000       0.00000000       0.00000000   -2612.32958984
Pr       0.00000000       0.00000000       0.47393939       0.00000000       0.00000000    2612.32958984
2
Properties=species:S:1:pos:R:3:forces:R:3 energy=150.19490105908778 pbc="F F F"
Pr       0.00000000       0.00000000       0.00000000       0.00000000       0.00000000   -1374.79895020
Pr       0.00000000       0.00000000       0.53272727       0.00000000       0.00000000    1374.79895020
2
Properties=species:S:1:pos:R:3:forces:R:3 energy=89.55007991743818 pbc="F F F"
Pr       0.00000000       0.00000000       0.00000000       0.00000000       0.00000000    -757.00177002
Pr       0.00000000       0.00000000       0.59151515       0.00000000       0.00000000     757.00177002
2
Properties=species:S:1:pos:R:3:forces:R:3 energy=55.4877058531331 pbc="F F F"
Pr       0.00000000       0.00000000       0.00000000       0.00000000       0.00000000    -435.53054810
Pr       0.00000000       0.00000000       0.65030303       0.00000000       0.00000000     435.53054810
2
Properties=species:S:1:pos:R:3:forces:R:3 energy=35.48788903462958 pbc="F F F"
Pr       0.00000000       0.00000000       0.00000000       0.00000000       0.00000000    -262.06008911
Pr       0.00000000       0.00000000       0.70909091       0.00000000       0.00000000     262.06008911
2
Properties=species:S:1:pos:R:3:forces:R:3 energy=23.21234594845184 pbc="F F F"
Pr       0.00000000       0.00000000       0.00000000       0.00000000       0.00000000    -164.29115295
Pr       0.00000000       0.00000000       0.76787879       0.00000000       0.00000000     164.29115295
2
Properties=species:S:1:pos:R:3:forces:R:3 energy=15.46165661931912 pbc="F F F"
Pr       0.00000000       0.00000000       0.00000000       0.00000000       0.00000000    -103.27770233
Pr       0.00000000       0.00000000       0.82666667       0.00000000       0.00000000     103.27770233
2
Properties=species:S:1:pos:R:3:forces:R:3 energy=10.758992497439715 pbc="F F F"
Pr       0.00000000       0.00000000       0.00000000       0.00000000       0.00000000     -58.51977158
Pr       0.00000000       0.00000000       0.88545455       0.00000000       0.00000000      58.51977158
2
Properties=species:S:1:pos:R:3:forces:R:3 energy=8.458322241127789 pbc="F F F"
Pr       0.00000000       0.00000000       0.00000000       0.00000000       0.00000000     -20.06820869
Pr       0.00000000       0.00000000       0.94424242       0.00000000       0.00000000      20.06820869
2
Properties=species:S:1:pos:R:3:forces:R:3 energy=8.411707134722105 pbc="F F F"
Pr       0.00000000       0.00000000       0.00000000       0.00000000       0.00000000      18.72193527
Pr       0.00000000       0.00000000       1.00303030       0.00000000       0.00000000     -18.72193527
2
Properties=species:S:1:pos:R:3:forces:R:3 energy=10.648924755763291 pbc="F F F"
Pr       0.00000000       0.00000000       0.00000000       0.00000000       0.00000000      56.57476044
Pr       0.00000000       0.00000000       1.06181818       0.00000000       0.00000000     -56.57476044
2
Properties=species:S:1:pos:R:3:forces:R:3 energy=14.788026683867164 pbc="F F F"
Pr       0.00000000       0.00000000       0.00000000       0.00000000       0.00000000      81.16112518
Pr       0.00000000       0.00000000       1.12060606       0.00000000       0.00000000     -81.16112518
2
Properties=species:S:1:pos:R:3:forces:R:3 energy=20.02186497731126 pbc="F F F"
Pr       0.00000000       0.00000000       0.00000000       0.00000000       0.00000000      96.54898834
Pr       0.00000000       0.00000000       1.17939394       0.00000000       0.00000000     -96.54898834
2
Properties=species:S:1:pos:R:3:forces:R:3 energy=25.88014095770476 pbc="F F F"
Pr       0.00000000       0.00000000       0.00000000       0.00000000       0.00000000      98.66798401
Pr       0.00000000       0.00000000       1.23818182       0.00000000       0.00000000     -98.66798401
2
Properties=species:S:1:pos:R:3:forces:R:3 energy=31.217282038721876 pbc="F F F"
Pr       0.00000000       0.00000000       0.00000000       0.00000000       0.00000000      80.27048492
Pr       0.00000000       0.00000000       1.29696970       0.00000000       0.00000000     -80.27048492
2
Properties=species:S:1:pos:R:3:forces:R:3 energy=34.96388557634561 pbc="F F F"
Pr       0.00000000       0.00000000       0.00000000       0.00000000       0.00000000      45.14008331
Pr       0.00000000       0.00000000       1.35575758       0.00000000       0.00000000     -45.14008331
2
Properties=species:S:1:pos:R:3:forces:R:3 energy=36.584436891088465 pbc="F F F"
Pr       0.00000000       0.00000000       0.00000000       0.00000000       0.00000000      10.95042133
Pr       0.00000000       0.00000000       1.41454545       0.00000000       0.00000000     -10.95042133
2
Properties=species:S:1:pos:R:3:forces:R:3 energy=36.30349206623032 pbc="F F F"
Pr       0.00000000       0.00000000       0.00000000       0.00000000       0.00000000     -20.08115959
Pr       0.00000000       0.00000000       1.47333333       0.00000000       0.00000000      20.08115959
2
Properties=species:S:1:pos:R:3:forces:R:3 energy=34.30237140624245 pbc="F F F"
Pr       0.00000000       0.00000000       0.00000000       0.00000000       0.00000000     -47.12940979
Pr       0.00000000       0.00000000       1.53212121       0.00000000       0.00000000      47.12940979
2
Properties=species:S:1:pos:R:3:forces:R:3 energy=30.8774637526354 pbc="F F F"
Pr       0.00000000       0.00000000       0.00000000       0.00000000       0.00000000     -68.30371857
Pr       0.00000000       0.00000000       1.59090909       0.00000000       0.00000000      68.30371857
2
Properties=species:S:1:pos:R:3:forces:R:3 energy=26.41961358988612 pbc="F F F"
Pr       0.00000000       0.00000000       0.00000000       0.00000000       0.00000000     -81.85774994
Pr       0.00000000       0.00000000       1.64969697       0.00000000       0.00000000      81.85774994
2
Properties=species:S:1:pos:R:3:forces:R:3 energy=21.457486663337757 pbc="F F F"
Pr       0.00000000       0.00000000       0.00000000       0.00000000       0.00000000     -85.06871796
Pr       0.00000000       0.00000000       1.70848485       0.00000000       0.00000000      85.06871796
2
Properties=species:S:1:pos:R:3:forces:R:3 energy=16.62456523112879 pbc="F F F"
Pr       0.00000000       0.00000000       0.00000000       0.00000000       0.00000000     -77.93652344
Pr       0.00000000       0.00000000       1.76727273       0.00000000       0.00000000      77.93652344
2
Properties=species:S:1:pos:R:3:forces:R:3 energy=12.394890519121116 pbc="F F F"
Pr       0.00000000       0.00000000       0.00000000       0.00000000       0.00000000     -65.65674591
Pr       0.00000000       0.00000000       1.82606061       0.00000000       0.00000000      65.65674591
2
Properties=species:S:1:pos:R:3:forces:R:3 energy=8.897079151762188 pbc="F F F"
Pr       0.00000000       0.00000000       0.00000000       0.00000000       0.00000000     -53.60928345
Pr       0.00000000       0.00000000       1.88484848       0.00000000       0.00000000      53.60928345
2
Properties=species:S:1:pos:R:3:forces:R:3 energy=6.056515077000722 pbc="F F F"
Pr       0.00000000       0.00000000       0.00000000       0.00000000       0.00000000     -43.32328033
Pr       0.00000000       0.00000000       1.94363636       0.00000000       0.00000000      43.32328033
2
Properties=species:S:1:pos:R:3:forces:R:3 energy=3.7687457885270614 pbc="F F F"
Pr       0.00000000       0.00000000       0.00000000       0.00000000       0.00000000     -34.80338669
Pr       0.00000000       0.00000000       2.00242424       0.00000000       0.00000000      34.80338669
2
Properties=species:S:1:pos:R:3:forces:R:3 energy=1.931596004579569 pbc="F F F"
Pr       0.00000000       0.00000000       0.00000000       0.00000000       0.00000000     -27.94691086
Pr       0.00000000       0.00000000       2.06121212       0.00000000       0.00000000      27.94691086
2
Properties=species:S:1:pos:R:3:forces:R:3 energy=0.45826049274012415 pbc="F F F"
Pr       0.00000000       0.00000000       0.00000000       0.00000000       0.00000000     -22.34995079
Pr       0.00000000       0.00000000       2.12000000       0.00000000       0.00000000      22.34995079
2
Properties=species:S:1:pos:R:3:forces:R:3 energy=-0.7134217796241173 pbc="F F F"
Pr       0.00000000       0.00000000       0.00000000       0.00000000       0.00000000     -17.63710213
Pr       0.00000000       0.00000000       2.17878788       0.00000000       0.00000000      17.63710213
2
Properties=species:S:1:pos:R:3:forces:R:3 energy=-1.6285281876077682 pbc="F F F"
Pr       0.00000000       0.00000000       0.00000000       0.00000000       0.00000000     -13.59551430
Pr       0.00000000       0.00000000       2.23757576       0.00000000       0.00000000      13.59551430
2
Properties=species:S:1:pos:R:3:forces:R:3 energy=-2.322937339316235 pbc="F F F"
Pr       0.00000000       0.00000000       0.00000000       0.00000000       0.00000000     -10.11891270
Pr       0.00000000       0.00000000       2.29636364       0.00000000       0.00000000      10.11891270
2
Properties=species:S:1:pos:R:3:forces:R:3 energy=-2.828917287745859 pbc="F F F"
Pr       0.00000000       0.00000000       0.00000000       0.00000000       0.00000000      -7.18671083
Pr       0.00000000       0.00000000       2.35515152       0.00000000       0.00000000       7.18671083
2
Properties=species:S:1:pos:R:3:forces:R:3 energy=-3.178927021160973 pbc="F F F"
Pr       0.00000000       0.00000000       0.00000000       0.00000000       0.00000000      -4.81581259
Pr       0.00000000       0.00000000       2.41393939       0.00000000       0.00000000       4.81581259
2
Properties=species:S:1:pos:R:3:forces:R:3 energy=-3.4063042500094607 pbc="F F F"
Pr       0.00000000       0.00000000       0.00000000       0.00000000       0.00000000      -3.01355529
Pr       0.00000000       0.00000000       2.47272727       0.00000000       0.00000000       3.01355529
2
Properties=species:S:1:pos:R:3:forces:R:3 energy=-3.5439035473276355 pbc="F F F"
Pr       0.00000000       0.00000000       0.00000000       0.00000000       0.00000000      -1.75354028
Pr       0.00000000       0.00000000       2.53151515       0.00000000       0.00000000       1.75354028
2
Properties=species:S:1:pos:R:3:forces:R:3 energy=-3.6217358424162907 pbc="F F F"
Pr       0.00000000       0.00000000       0.00000000       0.00000000       0.00000000      -0.96453220
Pr       0.00000000       0.00000000       2.59030303       0.00000000       0.00000000       0.96453220
2
Properties=species:S:1:pos:R:3:forces:R:3 energy=-3.6643723799672645 pbc="F F F"
Pr       0.00000000       0.00000000       0.00000000       0.00000000       0.00000000      -0.53532720
Pr       0.00000000       0.00000000       2.64909091       0.00000000       0.00000000       0.53532720
2
Properties=species:S:1:pos:R:3:forces:R:3 energy=-3.6891946540010094 pbc="F F F"
Pr       0.00000000       0.00000000       0.00000000       0.00000000       0.00000000      -0.33706647
Pr       0.00000000       0.00000000       2.70787879       0.00000000       0.00000000       0.33706647
2
Properties=species:S:1:pos:R:3:forces:R:3 energy=-3.7061896293138155 pbc="F F F"
Pr       0.00000000       0.00000000       0.00000000       0.00000000       0.00000000      -0.25145972
Pr       0.00000000       0.00000000       2.76666667       0.00000000       0.00000000       0.25145972
2
Properties=species:S:1:pos:R:3:forces:R:3 energy=-3.719206448144159 pbc="F F F"
Pr       0.00000000       0.00000000       0.00000000       0.00000000       0.00000000      -0.18982053
Pr       0.00000000       0.00000000       2.82545455       0.00000000       0.00000000       0.18982053
2
Properties=species:S:1:pos:R:3:forces:R:3 energy=-3.7278878187322357 pbc="F F F"
Pr       0.00000000       0.00000000       0.00000000       0.00000000       0.00000000      -0.09747449
Pr       0.00000000       0.00000000       2.88424242       0.00000000       0.00000000       0.09747449
2
Properties=species:S:1:pos:R:3:forces:R:3 energy=-3.7295538768909413 pbc="F F F"
Pr       0.00000000       0.00000000       0.00000000       0.00000000       0.00000000       0.05095133
Pr       0.00000000       0.00000000       2.94303030       0.00000000       0.00000000      -0.05095133
2
Properties=species:S:1:pos:R:3:forces:R:3 energy=-3.7207454774678785 pbc="F F F"
Pr       0.00000000       0.00000000       0.00000000       0.00000000       0.00000000       0.25753218
Pr       0.00000000       0.00000000       3.00181818       0.00000000       0.00000000      -0.25753218
2
Properties=species:S:1:pos:R:3:forces:R:3 energy=-3.698457249223123 pbc="F F F"
Pr       0.00000000       0.00000000       0.00000000       0.00000000       0.00000000       0.50528556
Pr       0.00000000       0.00000000       3.06060606       0.00000000       0.00000000      -0.50528556
2
Properties=species:S:1:pos:R:3:forces:R:3 energy=-3.6611401172758646 pbc="F F F"
Pr       0.00000000       0.00000000       0.00000000       0.00000000       0.00000000       0.76280379
Pr       0.00000000       0.00000000       3.11939394       0.00000000       0.00000000      -0.76280379
2
Properties=species:S:1:pos:R:3:forces:R:3 energy=-3.6093200246597523 pbc="F F F"
Pr       0.00000000       0.00000000       0.00000000       0.00000000       0.00000000       0.99241716
Pr       0.00000000       0.00000000       3.17818182       0.00000000       0.00000000      -0.99241716
2
Properties=species:S:1:pos:R:3:forces:R:3 energy=-3.5456529966792836 pbc="F F F"
Pr       0.00000000       0.00000000       0.00000000       0.00000000       0.00000000       1.16148424
Pr       0.00000000       0.00000000       3.23696970       0.00000000       0.00000000      -1.16148424
2
Properties=species:S:1:pos:R:3:forces:R:3 energy=-3.4742984224925566 pbc="F F F"
Pr       0.00000000       0.00000000       0.00000000       0.00000000       0.00000000       1.25263488
Pr       0.00000000       0.00000000       3.29575758       0.00000000       0.00000000      -1.25263488
2
Properties=species:S:1:pos:R:3:forces:R:3 energy=-3.399866979614044 pbc="F F F"
Pr       0.00000000       0.00000000       0.00000000       0.00000000       0.00000000       1.26812840
Pr       0.00000000       0.00000000       3.35454545       0.00000000       0.00000000      -1.26812840
2
Properties=species:S:1:pos:R:3:forces:R:3 energy=-3.3263180850345164 pbc="F F F"
Pr       0.00000000       0.00000000       0.00000000       0.00000000       0.00000000       1.22669268
Pr       0.00000000       0.00000000       3.41333333       0.00000000       0.00000000      -1.22669268
2
Properties=species:S:1:pos:R:3:forces:R:3 energy=-3.2562267580903077 pbc="F F F"
Pr       0.00000000       0.00000000       0.00000000       0.00000000       0.00000000       1.15510833
Pr       0.00000000       0.00000000       3.47212121       0.00000000       0.00000000      -1.15510833
2
Properties=species:S:1:pos:R:3:forces:R:3 energy=-3.1905921196591396 pbc="F F F"
Pr       0.00000000       0.00000000       0.00000000       0.00000000       0.00000000       1.07882857
Pr       0.00000000       0.00000000       3.53090909       0.00000000       0.00000000      -1.07882857
2
Properties=species:S:1:pos:R:3:forces:R:3 energy=-3.1291238342439325 pbc="F F F"
Pr       0.00000000       0.00000000       0.00000000       0.00000000       0.00000000       1.01544309
Pr       0.00000000       0.00000000       3.58969697       0.00000000       0.00000000      -1.01544309
2
Properties=species:S:1:pos:R:3:forces:R:3 energy=-3.07078714751592 pbc="F F F"
Pr       0.00000000       0.00000000       0.00000000       0.00000000       0.00000000       0.97284138
Pr       0.00000000       0.00000000       3.64848485       0.00000000       0.00000000      -0.97284138
2
Properties=species:S:1:pos:R:3:forces:R:3 energy=-3.014326126396758 pbc="F F F"
Pr       0.00000000       0.00000000       0.00000000       0.00000000       0.00000000       0.95129341
Pr       0.00000000       0.00000000       3.70727273       0.00000000       0.00000000      -0.95129341
2
Properties=species:S:1:pos:R:3:forces:R:3 energy=-2.9585978355433067 pbc="F F F"
Pr       0.00000000       0.00000000       0.00000000       0.00000000       0.00000000       0.94708508
Pr       0.00000000       0.00000000       3.76606061       0.00000000       0.00000000      -0.94708508
2
Properties=species:S:1:pos:R:3:forces:R:3 energy=-2.902725564466263 pbc="F F F"
Pr       0.00000000       0.00000000       0.00000000       0.00000000       0.00000000       0.95548630
Pr       0.00000000       0.00000000       3.82484848       0.00000000       0.00000000      -0.95548630
2
Properties=species:S:1:pos:R:3:forces:R:3 energy=-2.8460892907869964 pbc="F F F"
Pr       0.00000000       0.00000000       0.00000000       0.00000000       0.00000000       0.97242624
Pr       0.00000000       0.00000000       3.88363636       0.00000000       0.00000000      -0.97242624
2
Properties=species:S:1:pos:R:3:forces:R:3 energy=-2.788278600071772 pbc="F F F"
Pr       0.00000000       0.00000000       0.00000000       0.00000000       0.00000000       0.99516988
Pr       0.00000000       0.00000000       3.94242424       0.00000000       0.00000000      -0.99516988
2
Properties=species:S:1:pos:R:3:forces:R:3 energy=-2.7289944193632953 pbc="F F F"
Pr       0.00000000       0.00000000       0.00000000       0.00000000       0.00000000       1.02245498
Pr       0.00000000       0.00000000       4.00121212       0.00000000       0.00000000      -1.02245498
2
Properties=species:S:1:pos:R:3:forces:R:3 energy=-2.667978607672146 pbc="F F F"
Pr       0.00000000       0.00000000       0.00000000       0.00000000       0.00000000       1.05405104
Pr       0.00000000       0.00000000       4.06000000       0.00000000       0.00000000      -1.05405104
2
Properties=species:S:1:pos:R:3:forces:R:3 energy=-2.6049807674450327 pbc="F F F"
Pr       0.00000000       0.00000000       0.00000000       0.00000000       0.00000000       1.08985353
Pr       0.00000000       0.00000000       4.11878788       0.00000000       0.00000000      -1.08985353
2
Properties=species:S:1:pos:R:3:forces:R:3 energy=-2.539774933865329 pbc="F F F"
Pr       0.00000000       0.00000000       0.00000000       0.00000000       0.00000000       1.12883353
Pr       0.00000000       0.00000000       4.17757576       0.00000000       0.00000000      -1.12883353
2
Properties=species:S:1:pos:R:3:forces:R:3 energy=-2.472243987701365 pbc="F F F"
Pr       0.00000000       0.00000000       0.00000000       0.00000000       0.00000000       1.16836584
Pr       0.00000000       0.00000000       4.23636364       0.00000000       0.00000000      -1.16836584
2
Properties=species:S:1:pos:R:3:forces:R:3 energy=-2.4024728642995665 pbc="F F F"
Pr       0.00000000       0.00000000       0.00000000       0.00000000       0.00000000       1.20422852
Pr       0.00000000       0.00000000       4.29515152       0.00000000       0.00000000      -1.20422852
2
Properties=species:S:1:pos:R:3:forces:R:3 energy=-2.330829643579833 pbc="F F F"
Pr       0.00000000       0.00000000       0.00000000       0.00000000       0.00000000       1.23129857
Pr       0.00000000       0.00000000       4.35393939       0.00000000       0.00000000      -1.23129857
2
Properties=species:S:1:pos:R:3:forces:R:3 energy=-2.257973641260032 pbc="F F F"
Pr       0.00000000       0.00000000       0.00000000       0.00000000       0.00000000       1.24465787
Pr       0.00000000       0.00000000       4.41272727       0.00000000       0.00000000      -1.24465787
2
Properties=species:S:1:pos:R:3:forces:R:3 energy=-2.184825484492534 pbc="F F F"
Pr       0.00000000       0.00000000       0.00000000       0.00000000       0.00000000       1.24084306
Pr       0.00000000       0.00000000       4.47151515       0.00000000       0.00000000      -1.24084306
2
Properties=species:S:1:pos:R:3:forces:R:3 energy=-2.112436757921985 pbc="F F F"
Pr       0.00000000       0.00000000       0.00000000       0.00000000       0.00000000       1.21889317
Pr       0.00000000       0.00000000       4.53030303       0.00000000       0.00000000      -1.21889317
2
Properties=species:S:1:pos:R:3:forces:R:3 energy=-2.0418304152927678 pbc="F F F"
Pr       0.00000000       0.00000000       0.00000000       0.00000000       0.00000000       1.18086314
Pr       0.00000000       0.00000000       4.58909091       0.00000000       0.00000000      -1.18086314
2
Properties=species:S:1:pos:R:3:forces:R:3 energy=-1.9738187543674588 pbc="F F F"
Pr       0.00000000       0.00000000       0.00000000       0.00000000       0.00000000       1.13161910
Pr       0.00000000       0.00000000       4.64787879       0.00000000       0.00000000      -1.13161910
2
Properties=species:S:1:pos:R:3:forces:R:3 energy=-1.908868834806613 pbc="F F F"
Pr       0.00000000       0.00000000       0.00000000       0.00000000       0.00000000       1.07776999
Pr       0.00000000       0.00000000       4.70666667       0.00000000       0.00000000      -1.07776999
2
Properties=species:S:1:pos:R:3:forces:R:3 energy=-1.8470561766151712 pbc="F F F"
Pr       0.00000000       0.00000000       0.00000000       0.00000000       0.00000000       1.02603269
Pr       0.00000000       0.00000000       4.76545455       0.00000000       0.00000000      -1.02603269
2
Properties=species:S:1:pos:R:3:forces:R:3 energy=-1.7880915822326073 pbc="F F F"
Pr       0.00000000       0.00000000       0.00000000       0.00000000       0.00000000       0.98124504
Pr       0.00000000       0.00000000       4.82424242       0.00000000       0.00000000      -0.98124504
2
Properties=species:S:1:pos:R:3:forces:R:3 energy=-1.7315233408305848 pbc="F F F"
Pr       0.00000000       0.00000000       0.00000000       0.00000000       0.00000000       0.94469714
Pr       0.00000000       0.00000000       4.88303030       0.00000000       0.00000000      -0.94469714
2
Properties=species:S:1:pos:R:3:forces:R:3 energy=-1.6769135515234899 pbc="F F F"
Pr       0.00000000       0.00000000       0.00000000       0.00000000       0.00000000       0.91349733
Pr       0.00000000       0.00000000       4.94181818       0.00000000       0.00000000      -0.91349733
2
Properties=species:S:1:pos:R:3:forces:R:3 energy=-1.62412015987622 pbc="F F F"
Pr       0.00000000       0.00000000       0.00000000       0.00000000       0.00000000       0.88214874
Pr       0.00000000       0.00000000       5.00060606       0.00000000       0.00000000      -0.88214874
2
Properties=species:S:1:pos:R:3:forces:R:3 energy=-1.5732563910677764 pbc="F F F"
Pr       0.00000000       0.00000000       0.00000000       0.00000000       0.00000000       0.84787244
Pr       0.00000000       0.00000000       5.05939394       0.00000000       0.00000000      -0.84787244
2
Properties=species:S:1:pos:R:3:forces:R:3 energy=-1.524335998548636 pbc="F F F"
Pr       0.00000000       0.00000000       0.00000000       0.00000000       0.00000000       0.81896859
Pr       0.00000000       0.00000000       5.11818182       0.00000000       0.00000000      -0.81896859
2
Properties=species:S:1:pos:R:3:forces:R:3 energy=-1.4764202047006307 pbc="F F F"
Pr       0.00000000       0.00000000       0.00000000       0.00000000       0.00000000       0.81806368
Pr       0.00000000       0.00000000       5.17696970       0.00000000       0.00000000      -0.81806368
2
Properties=species:S:1:pos:R:3:forces:R:3 energy=-1.4271916773463627 pbc="F F F"
Pr       0.00000000       0.00000000       0.00000000       0.00000000       0.00000000       0.86489993
Pr       0.00000000       0.00000000       5.23575758       0.00000000       0.00000000      -0.86489993
2
Properties=species:S:1:pos:R:3:forces:R:3 energy=-1.3741015286870886 pbc="F F F"
Pr       0.00000000       0.00000000       0.00000000       0.00000000       0.00000000       0.94208777
Pr       0.00000000       0.00000000       5.29454545       0.00000000       0.00000000      -0.94208777
2
Properties=species:S:1:pos:R:3:forces:R:3 energy=-1.3169999447091012 pbc="F F F"
Pr       0.00000000       0.00000000       0.00000000       0.00000000       0.00000000       0.99030793
Pr       0.00000000       0.00000000       5.35333333       0.00000000       0.00000000      -0.99030793
2
Properties=species:S:1:pos:R:3:forces:R:3 energy=-1.2591469912601012 pbc="F F F"
Pr       0.00000000       0.00000000       0.00000000       0.00000000       0.00000000       0.96606499
Pr       0.00000000       0.00000000       5.41212121       0.00000000       0.00000000      -0.96606499
2
Properties=species:S:1:pos:R:3:forces:R:3 energy=-1.2041935679312838 pbc="F F F"
Pr       0.00000000       0.00000000       0.00000000       0.00000000       0.00000000       0.90466547
Pr       0.00000000       0.00000000       5.47090909       0.00000000       0.00000000      -0.90466547
2
Properties=species:S:1:pos:R:3:forces:R:3 energy=-1.1514111924831176 pbc="F F F"
Pr       0.00000000       0.00000000       0.00000000       0.00000000       0.00000000       0.91243553
Pr       0.00000000       0.00000000       5.52969697       0.00000000       0.00000000      -0.91243553
2
Properties=species:S:1:pos:R:3:forces:R:3 energy=-1.0936189933136626 pbc="F F F"
Pr       0.00000000       0.00000000       0.00000000       0.00000000       0.00000000       1.08381605
Pr       0.00000000       0.00000000       5.58848485       0.00000000       0.00000000      -1.08381605
2
Properties=species:S:1:pos:R:3:forces:R:3 energy=-1.0213163963361198 pbc="F F F"
Pr       0.00000000       0.00000000       0.00000000       0.00000000       0.00000000       1.38718820
Pr       0.00000000       0.00000000       5.64727273       0.00000000       0.00000000      -1.38718820
2
Properties=species:S:1:pos:R:3:forces:R:3 energy=-0.9317236963210517 pbc="F F F"
Pr       0.00000000       0.00000000       0.00000000       0.00000000       0.00000000       1.62772727
Pr       0.00000000       0.00000000       5.70606061       0.00000000       0.00000000      -1.62772727
2
Properties=species:S:1:pos:R:3:forces:R:3 energy=-0.8354899319411844 pbc="F F F"
Pr       0.00000000       0.00000000       0.00000000       0.00000000       0.00000000       1.58000946
Pr       0.00000000       0.00000000       5.76484848       0.00000000       0.00000000      -1.58000946
2
Properties=species:S:1:pos:R:3:forces:R:3 energy=-0.7525837493121296 pbc="F F F"
Pr       0.00000000       0.00000000       0.00000000       0.00000000       0.00000000       1.19566882
Pr       0.00000000       0.00000000       5.82363636       0.00000000       0.00000000      -1.19566882
2
Properties=species:S:1:pos:R:3:forces:R:3 energy=-0.6982654565960352 pbc="F F F"
Pr       0.00000000       0.00000000       0.00000000       0.00000000       0.00000000       0.65514719
Pr       0.00000000       0.00000000       5.88242424       0.00000000       0.00000000      -0.65514719
2
Properties=species:S:1:pos:R:3:forces:R:3 energy=-0.673588645805931 pbc="F F F"
Pr       0.00000000       0.00000000       0.00000000       0.00000000       0.00000000       0.21458916
Pr       0.00000000       0.00000000       5.94121212       0.00000000       0.00000000      -0.21458916
2
Properties=species:S:1:pos:R:3:forces:R:3 energy=-0.6675005098480447 pbc="F F F"
Pr       0.00000000       0.00000000       0.00000000       0.00000000       0.00000000       0.04782233
Pr       0.00000000       0.00000000       6.00000000       0.00000000       0.00000000      -0.04782233
