2
Properties=species:S:1:pos:R:3:forces:R:3 energy=20633.15487655362 pbc="F F F"
Pu       0.00000000       0.00000000       0.00000000       0.00000000       0.00000000 -368351.65625000
Pu       0.00000000       0.00000000       0.18000000       0.00000000       0.00000000  368351.65625000
2
Properties=species:S:1:pos:R:3:forces:R:3 energy=7907.535247647372 pbc="F F F"
Pu       0.00000000       0.00000000       0.00000000       0.00000000       0.00000000 -118393.13281250
Pu       0.00000000       0.00000000       0.23878788       0.00000000       0.00000000  118393.13281250
2
Properties=species:S:1:pos:R:3:forces:R:3 energy=3504.3951109286213 pbc="F F F"
Pu       0.00000000       0.00000000       0.00000000       0.00000000       0.00000000  -44706.05859375
Pu       0.00000000       0.00000000       0.29757576       0.00000000       0.00000000   44706.05859375
2
Properties=species:S:1:pos:R:3:forces:R:3 energy=1762.7558287020588 pbc="F F F"
Pu       0.00000000       0.00000000       0.00000000       0.00000000       0.00000000  -18698.77539062
Pu       0.00000000       0.00000000       0.35636364       0.00000000       0.00000000   18698.77539062
2
Properties=species:S:1:pos:R:3:forces:R:3 energy=1008.5929258700277 pbc="F F F"
Pu       0.00000000       0.00000000       0.00000000       0.00000000       0.00000000   -8451.18847656
Pu       0.00000000       0.00000000       0.41515152       0.00000000       0.00000000    8451.18847656
2
Properties=species:S:1:pos:R:3:forces:R:3 energy=657.3318785130821 pbc="F F F"
Pu       0.00000000       0.00000000       0.00000000       0.00000000       0.00000000   -4087.57275391
Pu       0.00000000       0.00000000       0.47393939       0.00000000       0.00000000    4087.57275391
2
Properties=species:S:1:pos:R:3:forces:R:3 energy=482.4365538123864 pbc="F F F"
Pu       0.00000000       0.00000000       0.00000000       0.00000000       0.00000000   -2111.29248047
Pu       0.00000000       0.00000000       0.53272727       0.00000000       0.00000000    2111.29248047
2
Properties=species:S:1:pos:R:3:forces:R:3 energy=389.310394157089 pbc="F F F"
Pu       0.00000000       0.00000000       0.00000000       0.00000000       0.00000000   -1168.20349121
Pu       0.00000000       0.00000000       0.59151515       0.00000000       0.00000000    1168.20349121
2
Properties=species:S:1:pos:R:3:forces:R:3 energy=336.0459288440647 pbc="F F F"
Pu       0.00000000       0.00000000       0.00000000       0.00000000       0.00000000    -695.76885986
Pu       0.00000000       0.00000000       0.65030303       0.00000000       0.00000000     695.76885986
2
Properties=species:S:1:pos:R:3:forces:R:3 energy=303.25070182496165 pbc="F F F"
Pu       0.00000000       0.00000000       0.00000000       0.00000000       0.00000000    -444.44677734
Pu       0.00000000       0.00000000       0.70909091       0.00000000       0.00000000     444.44677734
2
Properties=species:S:1:pos:R:3:forces:R:3 energy=281.7857970904905 pbc="F F F"
Pu       0.00000000       0.00000000       0.00000000       0.00000000       0.00000000    -297.37170410
Pu       0.00000000       0.00000000       0.76787879       0.00000000       0.00000000     297.37170410
2
Properties=species:S:1:pos:R:3:forces:R:3 energy=267.2884216719014 pbc="F F F"
Pu       0.00000000       0.00000000       0.00000000       0.00000000       0.00000000    -202.55410767
Pu       0.00000000       0.00000000       0.82666667       0.00000000       0.00000000     202.55410767
2
Properties=species:S:1:pos:R:3:forces:R:3 energy=257.21621718342794 pbc="F F F"
Pu       0.00000000       0.00000000       0.00000000       0.00000000       0.00000000    -146.90364075
Pu       0.00000000       0.00000000       0.88545455       0.00000000       0.00000000     146.90364075
2
Properties=species:S:1:pos:R:3:forces:R:3 energy=249.13273649418682 pbc="F F F"
Pu       0.00000000       0.00000000       0.00000000       0.00000000       0.00000000    -136.10418701
Pu       0.00000000       0.00000000       0.94424242       0.00000000       0.00000000     136.10418701
2
Properties=species:S:1:pos:R:3:forces:R:3 energy=240.30122423941992 pbc="F F F"
Pu       0.00000000       0.00000000       0.00000000       0.00000000       0.00000000    -171.30891418
Pu       0.00000000       0.00000000       1.00303030       0.00000000       0.00000000     171.30891418
2
Properties=species:S:1:pos:R:3:forces:R:3 energy=228.3393867369623 pbc="F F F"
Pu       0.00000000       0.00000000       0.00000000       0.00000000       0.00000000    -239.59461975
Pu       0.00000000       0.00000000       1.06181818       0.00000000       0.00000000     239.59461975
2
Properties=species:S:1:pos:R:3:forces:R:3 energy=211.858338507774 pbc="F F F"
Pu       0.00000000       0.00000000       0.00000000       0.00000000       0.00000000    -321.85238647
Pu       0.00000000       0.00000000       1.12060606       0.00000000       0.00000000     321.85238647
2
Properties=species:S:1:pos:R:3:forces:R:3 energy=190.57318272661166 pbc="F F F"
Pu       0.00000000       0.00000000       0.00000000       0.00000000       0.00000000    -400.38320923
Pu       0.00000000       0.00000000       1.17939394       0.00000000       0.00000000     400.38320923
2
Properties=species:S:1:pos:R:3:forces:R:3 energy=165.12050082704505 pbc="F F F"
Pu       0.00000000       0.00000000       0.00000000       0.00000000       0.00000000    -461.85183716
Pu       0.00000000       0.00000000       1.23818182       0.00000000       0.00000000     461.85183716
2
Properties=species:S:1:pos:R:3:forces:R:3 energy=136.78166492373614 pbc="F F F"
Pu       0.00000000       0.00000000       0.00000000       0.00000000       0.00000000    -497.28671265
Pu       0.00000000       0.00000000       1.29696970       0.00000000       0.00000000     497.28671265
2
Properties=species:S:1:pos:R:3:forces:R:3 energy=107.29420862403472 pbc="F F F"
Pu       0.00000000       0.00000000       0.00000000       0.00000000       0.00000000    -500.07403564
Pu       0.00000000       0.00000000       1.35575758       0.00000000       0.00000000     500.07403564
2
Properties=species:S:1:pos:R:3:forces:R:3 energy=78.66882837075187 pbc="F F F"
Pu       0.00000000       0.00000000       0.00000000       0.00000000       0.00000000    -468.26416016
Pu       0.00000000       0.00000000       1.41454545       0.00000000       0.00000000     468.26416016
2
Properties=species:S:1:pos:R:3:forces:R:3 energy=52.795424422092246 pbc="F F F"
Pu       0.00000000       0.00000000       0.00000000       0.00000000       0.00000000    -408.37030029
Pu       0.00000000       0.00000000       1.47333333       0.00000000       0.00000000     408.37030029
2
Properties=species:S:1:pos:R:3:forces:R:3 energy=30.87846461484979 pbc="F F F"
Pu       0.00000000       0.00000000       0.00000000       0.00000000       0.00000000    -337.07766724
Pu       0.00000000       0.00000000       1.53212121       0.00000000       0.00000000     337.07766724
2
Properties=species:S:1:pos:R:3:forces:R:3 energy=13.144778528518263 pbc="F F F"
Pu       0.00000000       0.00000000       0.00000000       0.00000000       0.00000000    -265.03005981
Pu       0.00000000       0.00000000       1.59090909       0.00000000       0.00000000     265.03005981
2
Properties=species:S:1:pos:R:3:forces:R:3 energy=0.04727382038817869 pbc="F F F"
Pu       0.00000000       0.00000000       0.00000000       0.00000000       0.00000000    -178.66368103
Pu       0.00000000       0.00000000       1.64969697       0.00000000       0.00000000     178.66368103
2
Properties=species:S:1:pos:R:3:forces:R:3 energy=-8.134334868169073 pbc="F F F"
Pu       0.00000000       0.00000000       0.00000000       0.00000000       0.00000000    -105.39067841
Pu       0.00000000       0.00000000       1.70848485       0.00000000       0.00000000     105.39067841
2
Properties=species:S:1:pos:R:3:forces:R:3 energy=-12.964835294132602 pbc="F F F"
Pu       0.00000000       0.00000000       0.00000000       0.00000000       0.00000000     -63.59576416
Pu       0.00000000       0.00000000       1.76727273       0.00000000       0.00000000      63.59576416
2
Properties=species:S:1:pos:R:3:forces:R:3 energy=-16.075999384781607 pbc="F F F"
Pu       0.00000000       0.00000000       0.00000000       0.00000000       0.00000000     -44.60149002
Pu       0.00000000       0.00000000       1.82606061       0.00000000       0.00000000      44.60149002
2
Properties=species:S:1:pos:R:3:forces:R:3 energy=-18.345864485107892 pbc="F F F"
Pu       0.00000000       0.00000000       0.00000000       0.00000000       0.00000000     -32.76470566
Pu       0.00000000       0.00000000       1.88484848       0.00000000       0.00000000      32.76470566
2
Properties=species:S:1:pos:R:3:forces:R:3 energy=-19.841175260109605 pbc="F F F"
Pu       0.00000000       0.00000000       0.00000000       0.00000000       0.00000000     -16.99935150
Pu       0.00000000       0.00000000       1.94363636       0.00000000       0.00000000      16.99935150
2
Properties=species:S:1:pos:R:3:forces:R:3 energy=-20.312728829459797 pbc="F F F"
Pu       0.00000000       0.00000000       0.00000000       0.00000000       0.00000000      -0.02951957
Pu       0.00000000       0.00000000       2.00242424       0.00000000       0.00000000       0.02951957
2
Properties=species:S:1:pos:R:3:forces:R:3 energy=-20.054350209646078 pbc="F F F"
Pu       0.00000000       0.00000000       0.00000000       0.00000000       0.00000000       6.86503649
Pu       0.00000000       0.00000000       2.06121212       0.00000000       0.00000000      -6.86503649
2
Properties=species:S:1:pos:R:3:forces:R:3 energy=-19.68377980368876 pbc="F F F"
Pu       0.00000000       0.00000000       0.00000000       0.00000000       0.00000000       4.78005171
Pu       0.00000000       0.00000000       2.12000000       0.00000000       0.00000000      -4.78005171
2
Properties=species:S:1:pos:R:3:forces:R:3 energy=-19.54811296804127 pbc="F F F"
Pu       0.00000000       0.00000000       0.00000000       0.00000000       0.00000000      -0.25566342
Pu       0.00000000       0.00000000       2.17878788       0.00000000       0.00000000       0.25566342
2
Properties=species:S:1:pos:R:3:forces:R:3 energy=-19.697453641198344 pbc="F F F"
Pu       0.00000000       0.00000000       0.00000000       0.00000000       0.00000000      -4.54025030
Pu       0.00000000       0.00000000       2.23757576       0.00000000       0.00000000       4.54025030
2
Properties=species:S:1:pos:R:3:forces:R:3 energy=-20.042837170810376 pbc="F F F"
Pu       0.00000000       0.00000000       0.00000000       0.00000000       0.00000000      -6.87540102
Pu       0.00000000       0.00000000       2.29636364       0.00000000       0.00000000       6.87540102
2
Properties=species:S:1:pos:R:3:forces:R:3 energy=-20.471031815578446 pbc="F F F"
Pu       0.00000000       0.00000000       0.00000000       0.00000000       0.00000000      -7.44412470
Pu       0.00000000       0.00000000       2.35515152       0.00000000       0.00000000       7.44412470
2
Properties=species:S:1:pos:R:3:forces:R:3 energy=-20.894440580821694 pbc="F F F"
Pu       0.00000000       0.00000000       0.00000000       0.00000000       0.00000000      -6.80417585
Pu       0.00000000       0.00000000       2.41393939       0.00000000       0.00000000       6.80417585
2
Properties=species:S:1:pos:R:3:forces:R:3 energy=-21.258048130658477 pbc="F F F"
Pu       0.00000000       0.00000000       0.00000000       0.00000000       0.00000000      -5.50294542
Pu       0.00000000       0.00000000       2.47272727       0.00000000       0.00000000       5.50294542
2
Properties=species:S:1:pos:R:3:forces:R:3 energy=-21.539235433064174 pbc="F F F"
Pu       0.00000000       0.00000000       0.00000000       0.00000000       0.00000000      -4.08141613
Pu       0.00000000       0.00000000       2.53151515       0.00000000       0.00000000       4.08141613
2
Properties=species:S:1:pos:R:3:forces:R:3 energy=-21.74276614494236 pbc="F F F"
Pu       0.00000000       0.00000000       0.00000000       0.00000000       0.00000000      -2.89728737
Pu       0.00000000       0.00000000       2.59030303       0.00000000       0.00000000       2.89728737
2
Properties=species:S:1:pos:R:3:forces:R:3 energy=-21.886462050089374 pbc="F F F"
Pu       0.00000000       0.00000000       0.00000000       0.00000000       0.00000000      -2.04354000
Pu       0.00000000       0.00000000       2.64909091       0.00000000       0.00000000       2.04354000
2
Properties=species:S:1:pos:R:3:forces:R:3 energy=-21.98823377274076 pbc="F F F"
Pu       0.00000000       0.00000000       0.00000000       0.00000000       0.00000000      -1.45404625
Pu       0.00000000       0.00000000       2.70787879       0.00000000       0.00000000       1.45404625
2
Properties=species:S:1:pos:R:3:forces:R:3 energy=-22.06058424864227 pbc="F F F"
Pu       0.00000000       0.00000000       0.00000000       0.00000000       0.00000000      -1.02706027
Pu       0.00000000       0.00000000       2.76666667       0.00000000       0.00000000       1.02706027
2
Properties=species:S:1:pos:R:3:forces:R:3 energy=-22.110694992897777 pbc="F F F"
Pu       0.00000000       0.00000000       0.00000000       0.00000000       0.00000000      -0.68831813
Pu       0.00000000       0.00000000       2.82545455       0.00000000       0.00000000       0.68831813
2
Properties=species:S:1:pos:R:3:forces:R:3 energy=-22.142519601835456 pbc="F F F"
Pu       0.00000000       0.00000000       0.00000000       0.00000000       0.00000000      -0.40175495
Pu       0.00000000       0.00000000       2.88424242       0.00000000       0.00000000       0.40175495
2
Properties=species:S:1:pos:R:3:forces:R:3 energy=-22.158770278623756 pbc="F F F"
Pu       0.00000000       0.00000000       0.00000000       0.00000000       0.00000000      -0.15849055
Pu       0.00000000       0.00000000       2.94303030       0.00000000       0.00000000       0.15849055
2
Properties=species:S:1:pos:R:3:forces:R:3 energy=-22.162098158637562 pbc="F F F"
Pu       0.00000000       0.00000000       0.00000000       0.00000000       0.00000000       0.03652387
Pu       0.00000000       0.00000000       3.00181818       0.00000000       0.00000000      -0.03652387
2
Properties=species:S:1:pos:R:3:forces:R:3 energy=-22.15557791507539 pbc="F F F"
Pu       0.00000000       0.00000000       0.00000000       0.00000000       0.00000000       0.17549923
Pu       0.00000000       0.00000000       3.06060606       0.00000000       0.00000000      -0.17549923
2
Properties=species:S:1:pos:R:3:forces:R:3 energy=-22.142618905209492 pbc="F F F"
Pu       0.00000000       0.00000000       0.00000000       0.00000000       0.00000000       0.25582650
Pu       0.00000000       0.00000000       3.11939394       0.00000000       0.00000000      -0.25582650
2
Properties=species:S:1:pos:R:3:forces:R:3 energy=-22.12653567417928 pbc="F F F"
Pu       0.00000000       0.00000000       0.00000000       0.00000000       0.00000000       0.28344423
Pu       0.00000000       0.00000000       3.17818182       0.00000000       0.00000000      -0.28344423
2
Properties=species:S:1:pos:R:3:forces:R:3 energy=-22.110074019238507 pbc="F F F"
Pu       0.00000000       0.00000000       0.00000000       0.00000000       0.00000000       0.27126443
Pu       0.00000000       0.00000000       3.23696970       0.00000000       0.00000000      -0.27126443
2
Properties=species:S:1:pos:R:3:forces:R:3 energy=-22.095115032975876 pbc="F F F"
Pu       0.00000000       0.00000000       0.00000000       0.00000000       0.00000000       0.23488781
Pu       0.00000000       0.00000000       3.29575758       0.00000000       0.00000000      -0.23488781
2
Properties=species:S:1:pos:R:3:forces:R:3 energy=-22.08265637733004 pbc="F F F"
Pu       0.00000000       0.00000000       0.00000000       0.00000000       0.00000000       0.18817045
Pu       0.00000000       0.00000000       3.35454545       0.00000000       0.00000000      -0.18817045
2
Properties=species:S:1:pos:R:3:forces:R:3 energy=-22.073012763952605 pbc="F F F"
Pu       0.00000000       0.00000000       0.00000000       0.00000000       0.00000000       0.14018430
Pu       0.00000000       0.00000000       3.41333333       0.00000000       0.00000000      -0.14018430
2
Properties=species:S:1:pos:R:3:forces:R:3 energy=-22.066126606543666 pbc="F F F"
Pu       0.00000000       0.00000000       0.00000000       0.00000000       0.00000000       0.09451836
Pu       0.00000000       0.00000000       3.47212121       0.00000000       0.00000000      -0.09451836
2
Properties=species:S:1:pos:R:3:forces:R:3 energy=-22.061848237071818 pbc="F F F"
Pu       0.00000000       0.00000000       0.00000000       0.00000000       0.00000000       0.05146047
Pu       0.00000000       0.00000000       3.53090909       0.00000000       0.00000000      -0.05146047
2
Properties=species:S:1:pos:R:3:forces:R:3 energy=-22.06000564532162 pbc="F F F"
Pu       0.00000000       0.00000000       0.00000000       0.00000000       0.00000000       0.01219728
Pu       0.00000000       0.00000000       3.58969697       0.00000000       0.00000000      -0.01219728
2
Properties=species:S:1:pos:R:3:forces:R:3 energy=-22.06023789451933 pbc="F F F"
Pu       0.00000000       0.00000000       0.00000000       0.00000000       0.00000000      -0.01789350
Pu       0.00000000       0.00000000       3.64848485       0.00000000       0.00000000       0.01789350
2
Properties=species:S:1:pos:R:3:forces:R:3 energy=-22.06176929377226 pbc="F F F"
Pu       0.00000000       0.00000000       0.00000000       0.00000000       0.00000000      -0.03079421
Pu       0.00000000       0.00000000       3.70727273       0.00000000       0.00000000       0.03079421
2
Properties=species:S:1:pos:R:3:forces:R:3 energy=-22.063438934028046 pbc="F F F"
Pu       0.00000000       0.00000000       0.00000000       0.00000000       0.00000000      -0.02266248
Pu       0.00000000       0.00000000       3.76606061       0.00000000       0.00000000       0.02266248
2
Properties=species:S:1:pos:R:3:forces:R:3 energy=-22.06411069354065 pbc="F F F"
Pu       0.00000000       0.00000000       0.00000000       0.00000000       0.00000000       0.00180975
Pu       0.00000000       0.00000000       3.82484848       0.00000000       0.00000000      -0.00180975
2
Properties=species:S:1:pos:R:3:forces:R:3 energy=-22.063076219141752 pbc="F F F"
Pu       0.00000000       0.00000000       0.00000000       0.00000000       0.00000000       0.03410822
Pu       0.00000000       0.00000000       3.88363636       0.00000000       0.00000000      -0.03410822
2
Properties=species:S:1:pos:R:3:forces:R:3 energy=-22.060054941906046 pbc="F F F"
Pu       0.00000000       0.00000000       0.00000000       0.00000000       0.00000000       0.06884247
Pu       0.00000000       0.00000000       3.94242424       0.00000000       0.00000000      -0.06884247
2
Properties=species:S:1:pos:R:3:forces:R:3 energy=-22.054960777978177 pbc="F F F"
Pu       0.00000000       0.00000000       0.00000000       0.00000000       0.00000000       0.10462132
Pu       0.00000000       0.00000000       4.00121212       0.00000000       0.00000000      -0.10462132
2
Properties=species:S:1:pos:R:3:forces:R:3 energy=-22.04773952847633 pbc="F F F"
Pu       0.00000000       0.00000000       0.00000000       0.00000000       0.00000000       0.14116660
Pu       0.00000000       0.00000000       4.06000000       0.00000000       0.00000000      -0.14116660
2
Properties=species:S:1:pos:R:3:forces:R:3 energy=-22.038369349027672 pbc="F F F"
Pu       0.00000000       0.00000000       0.00000000       0.00000000       0.00000000       0.17741102
Pu       0.00000000       0.00000000       4.11878788       0.00000000       0.00000000      -0.17741102
2
Properties=species:S:1:pos:R:3:forces:R:3 energy=-22.02692341248742 pbc="F F F"
Pu       0.00000000       0.00000000       0.00000000       0.00000000       0.00000000       0.21141851
Pu       0.00000000       0.00000000       4.17757576       0.00000000       0.00000000      -0.21141851
2
Properties=species:S:1:pos:R:3:forces:R:3 energy=-22.013598796279847 pbc="F F F"
Pu       0.00000000       0.00000000       0.00000000       0.00000000       0.00000000       0.24100536
Pu       0.00000000       0.00000000       4.23636364       0.00000000       0.00000000      -0.24100536
2
Properties=species:S:1:pos:R:3:forces:R:3 energy=-21.998710489140116 pbc="F F F"
Pu       0.00000000       0.00000000       0.00000000       0.00000000       0.00000000       0.26430163
Pu       0.00000000       0.00000000       4.29515152       0.00000000       0.00000000      -0.26430163
2
Properties=species:S:1:pos:R:3:forces:R:3 energy=-21.98267182089011 pbc="F F F"
Pu       0.00000000       0.00000000       0.00000000       0.00000000       0.00000000       0.28001636
Pu       0.00000000       0.00000000       4.35393939       0.00000000       0.00000000      -0.28001636
2
Properties=species:S:1:pos:R:3:forces:R:3 energy=-21.96594937569736 pbc="F F F"
Pu       0.00000000       0.00000000       0.00000000       0.00000000       0.00000000       0.28751671
Pu       0.00000000       0.00000000       4.41272727       0.00000000       0.00000000      -0.28751671
2
Properties=species:S:1:pos:R:3:forces:R:3 energy=-21.949027379360114 pbc="F F F"
Pu       0.00000000       0.00000000       0.00000000       0.00000000       0.00000000       0.28685376
Pu       0.00000000       0.00000000       4.47151515       0.00000000       0.00000000      -0.28685376
2
Properties=species:S:1:pos:R:3:forces:R:3 energy=-21.932366935074196 pbc="F F F"
Pu       0.00000000       0.00000000       0.00000000       0.00000000       0.00000000       0.27882040
Pu       0.00000000       0.00000000       4.53030303       0.00000000       0.00000000      -0.27882040
2
Properties=species:S:1:pos:R:3:forces:R:3 energy=-21.91635856146472 pbc="F F F"
Pu       0.00000000       0.00000000       0.00000000       0.00000000       0.00000000       0.26500872
Pu       0.00000000       0.00000000       4.58909091       0.00000000       0.00000000      -0.26500872
2
Properties=species:S:1:pos:R:3:forces:R:3 energy=-21.901276758343702 pbc="F F F"
Pu       0.00000000       0.00000000       0.00000000       0.00000000       0.00000000       0.24775998
Pu       0.00000000       0.00000000       4.64787879       0.00000000       0.00000000      -0.24775998
2
Properties=species:S:1:pos:R:3:forces:R:3 energy=-21.887239939717485 pbc="F F F"
Pu       0.00000000       0.00000000       0.00000000       0.00000000       0.00000000       0.22986987
Pu       0.00000000       0.00000000       4.70666667       0.00000000       0.00000000      -0.22986987
2
Properties=species:S:1:pos:R:3:forces:R:3 energy=-21.874206739466707 pbc="F F F"
Pu       0.00000000       0.00000000       0.00000000       0.00000000       0.00000000       0.21406497
Pu       0.00000000       0.00000000       4.76545455       0.00000000       0.00000000      -0.21406497
2
Properties=species:S:1:pos:R:3:forces:R:3 energy=-21.86199132715618 pbc="F F F"
Pu       0.00000000       0.00000000       0.00000000       0.00000000       0.00000000       0.20230244
Pu       0.00000000       0.00000000       4.82424242       0.00000000       0.00000000      -0.20230244
2
Properties=species:S:1:pos:R:3:forces:R:3 energy=-21.85033015256572 pbc="F F F"
Pu       0.00000000       0.00000000       0.00000000       0.00000000       0.00000000       0.19514970
Pu       0.00000000       0.00000000       4.88303030       0.00000000       0.00000000      -0.19514970
2
Properties=species:S:1:pos:R:3:forces:R:3 energy=-21.83897538043061 pbc="F F F"
Pu       0.00000000       0.00000000       0.00000000       0.00000000       0.00000000       0.19152308
Pu       0.00000000       0.00000000       4.94181818       0.00000000       0.00000000      -0.19152308
2
Properties=species:S:1:pos:R:3:forces:R:3 energy=-21.827786512868034 pbc="F F F"
Pu       0.00000000       0.00000000       0.00000000       0.00000000       0.00000000       0.18918349
Pu       0.00000000       0.00000000       5.00060606       0.00000000       0.00000000      -0.18918349
2
Properties=species:S:1:pos:R:3:forces:R:3 energy=-21.81674378516704 pbc="F F F"
Pu       0.00000000       0.00000000       0.00000000       0.00000000       0.00000000       0.18640377
Pu       0.00000000       0.00000000       5.05939394       0.00000000       0.00000000      -0.18640377
2
Properties=species:S:1:pos:R:3:forces:R:3 energy=-21.805852633630135 pbc="F F F"
Pu       0.00000000       0.00000000       0.00000000       0.00000000       0.00000000       0.18470588
Pu       0.00000000       0.00000000       5.11818182       0.00000000       0.00000000      -0.18470588
2
Properties=species:S:1:pos:R:3:forces:R:3 energy=-21.79488250918783 pbc="F F F"
Pu       0.00000000       0.00000000       0.00000000       0.00000000       0.00000000       0.19046588
Pu       0.00000000       0.00000000       5.17696970       0.00000000       0.00000000      -0.19046588
2
Properties=species:S:1:pos:R:3:forces:R:3 energy=-21.783168430777454 pbc="F F F"
Pu       0.00000000       0.00000000       0.00000000       0.00000000       0.00000000       0.21062353
Pu       0.00000000       0.00000000       5.23575758       0.00000000       0.00000000      -0.21062353
2
Properties=species:S:1:pos:R:3:forces:R:3 energy=-21.769887449524614 pbc="F F F"
Pu       0.00000000       0.00000000       0.00000000       0.00000000       0.00000000       0.24192576
Pu       0.00000000       0.00000000       5.29454545       0.00000000       0.00000000      -0.24192576
2
Properties=species:S:1:pos:R:3:forces:R:3 energy=-21.75484071870343 pbc="F F F"
Pu       0.00000000       0.00000000       0.00000000       0.00000000       0.00000000       0.26736063
Pu       0.00000000       0.00000000       5.35333333       0.00000000       0.00000000      -0.26736063
2
Properties=species:S:1:pos:R:3:forces:R:3 energy=-21.738872996394168 pbc="F F F"
Pu       0.00000000       0.00000000       0.00000000       0.00000000       0.00000000       0.27220279
Pu       0.00000000       0.00000000       5.41212121       0.00000000       0.00000000      -0.27220279
2
Properties=species:S:1:pos:R:3:forces:R:3 energy=-21.72313817053978 pbc="F F F"
Pu       0.00000000       0.00000000       0.00000000       0.00000000       0.00000000       0.26229936
Pu       0.00000000       0.00000000       5.47090909       0.00000000       0.00000000      -0.26229936
2
Properties=species:S:1:pos:R:3:forces:R:3 energy=-21.707848095263582 pbc="F F F"
Pu       0.00000000       0.00000000       0.00000000       0.00000000       0.00000000       0.26167127
Pu       0.00000000       0.00000000       5.52969697       0.00000000       0.00000000      -0.26167127
2
Properties=species:S:1:pos:R:3:forces:R:3 energy=-21.691765179112128 pbc="F F F"
Pu       0.00000000       0.00000000       0.00000000       0.00000000       0.00000000       0.29096076
Pu       0.00000000       0.00000000       5.58848485       0.00000000       0.00000000      -0.29096076
2
Properties=species:S:1:pos:R:3:forces:R:3 energy=-21.67321686010903 pbc="F F F"
Pu       0.00000000       0.00000000       0.00000000       0.00000000       0.00000000       0.34099326
Pu       0.00000000       0.00000000       5.64727273       0.00000000       0.00000000      -0.34099326
2
Properties=species:S:1:pos:R:3:forces:R:3 energy=-21.652092631451723 pbc="F F F"
Pu       0.00000000       0.00000000       0.00000000       0.00000000       0.00000000       0.36976865
Pu       0.00000000       0.00000000       5.70606061       0.00000000       0.00000000      -0.36976865
2
Properties=species:S:1:pos:R:3:forces:R:3 energy=-21.63088924955533 pbc="F F F"
Pu       0.00000000       0.00000000       0.00000000       0.00000000       0.00000000       0.33920017
Pu       0.00000000       0.00000000       5.76484848       0.00000000       0.00000000      -0.33920017
2
Properties=species:S:1:pos:R:3:forces:R:3 energy=-21.613329648915737 pbc="F F F"
Pu       0.00000000       0.00000000       0.00000000       0.00000000       0.00000000       0.25164267
Pu       0.00000000       0.00000000       5.82363636       0.00000000       0.00000000      -0.25164267
2
Properties=species:S:1:pos:R:3:forces:R:3 energy=-21.60172315576268 pbc="F F F"
Pu       0.00000000       0.00000000       0.00000000       0.00000000       0.00000000       0.14531490
Pu       0.00000000       0.00000000       5.88242424       0.00000000       0.00000000      -0.14531490
2
Properties=species:S:1:pos:R:3:forces:R:3 energy=-21.59577717501546 pbc="F F F"
Pu       0.00000000       0.00000000       0.00000000       0.00000000       0.00000000       0.06308404
Pu       0.00000000       0.00000000       5.94121212       0.00000000       0.00000000      -0.06308404
2
Properties=species:S:1:pos:R:3:forces:R:3 energy=-21.593276130368487 pbc="F F F"
Pu       0.00000000       0.00000000       0.00000000       0.00000000       0.00000000       0.03215090
Pu       0.00000000       0.00000000       6.00000000       0.00000000       0.00000000      -0.03215090
