2
Properties=species:S:1:pos:R:3:forces:R:3 energy=8910.116660513573 pbc="F F F"
Sb       0.00000000       0.00000000       0.00000000       0.00000000       0.00000000 -148823.64062500
Sb       0.00000000       0.00000000       0.18000000       0.00000000       0.00000000  148823.64062500
2
Properties=species:S:1:pos:R:3:forces:R:3 energy=3629.033896841698 pbc="F F F"
Sb       0.00000000       0.00000000       0.00000000       0.00000000       0.00000000  -51077.67968750
Sb       0.00000000       0.00000000       0.23878788       0.00000000       0.00000000   51077.67968750
2
Properties=species:S:1:pos:R:3:forces:R:3 energy=1674.059043326073 pbc="F F F"
Sb       0.00000000       0.00000000       0.00000000       0.00000000       0.00000000  -20653.57421875
Sb       0.00000000       0.00000000       0.29757576       0.00000000       0.00000000   20653.57421875
2
Properties=species:S:1:pos:R:3:forces:R:3 energy=845.4467386449087 pbc="F F F"
Sb       0.00000000       0.00000000       0.00000000       0.00000000       0.00000000   -9239.66699219
Sb       0.00000000       0.00000000       0.35636364       0.00000000       0.00000000    9239.66699219
2
Properties=species:S:1:pos:R:3:forces:R:3 energy=462.83379308826807 pbc="F F F"
Sb       0.00000000       0.00000000       0.00000000       0.00000000       0.00000000   -4424.21337891
Sb       0.00000000       0.00000000       0.41515152       0.00000000       0.00000000    4424.21337891
2
Properties=species:S:1:pos:R:3:forces:R:3 energy=275.43080848813435 pbc="F F F"
Sb       0.00000000       0.00000000       0.00000000       0.00000000       0.00000000   -2223.04956055
Sb       0.00000000       0.00000000       0.47393939       0.00000000       0.00000000    2223.04956055
2
Properties=species:S:1:pos:R:3:forces:R:3 energy=179.7977061028204 pbc="F F F"
Sb       0.00000000       0.00000000       0.00000000       0.00000000       0.00000000   -1153.02770996
Sb       0.00000000       0.00000000       0.53272727       0.00000000       0.00000000    1153.02770996
2
Properties=species:S:1:pos:R:3:forces:R:3 energy=129.7860026622946 pbc="F F F"
Sb       0.00000000       0.00000000       0.00000000       0.00000000       0.00000000    -607.59002686
Sb       0.00000000       0.00000000       0.59151515       0.00000000       0.00000000     607.59002686
2
Properties=species:S:1:pos:R:3:forces:R:3 energy=103.34103356107624 pbc="F F F"
Sb       0.00000000       0.00000000       0.00000000       0.00000000       0.00000000    -322.37078857
Sb       0.00000000       0.00000000       0.65030303       0.00000000       0.00000000     322.37078857
2
Properties=species:S:1:pos:R:3:forces:R:3 energy=89.31143927273806 pbc="F F F"
Sb       0.00000000       0.00000000       0.00000000       0.00000000       0.00000000    -170.31520081
Sb       0.00000000       0.00000000       0.70909091       0.00000000       0.00000000     170.31520081
2
Properties=species:S:1:pos:R:3:forces:R:3 energy=81.97756953506101 pbc="F F F"
Sb       0.00000000       0.00000000       0.00000000       0.00000000       0.00000000     -87.85570526
Sb       0.00000000       0.00000000       0.76787879       0.00000000       0.00000000      87.85570526
2
Properties=species:S:1:pos:R:3:forces:R:3 energy=78.13948846030172 pbc="F F F"
Sb       0.00000000       0.00000000       0.00000000       0.00000000       0.00000000     -48.77892303
Sb       0.00000000       0.00000000       0.82666667       0.00000000       0.00000000      48.77892303
2
Properties=species:S:1:pos:R:3:forces:R:3 energy=75.62716739995062 pbc="F F F"
Sb       0.00000000       0.00000000       0.00000000       0.00000000       0.00000000     -41.13867950
Sb       0.00000000       0.00000000       0.88545455       0.00000000       0.00000000      41.13867950
2
Properties=species:S:1:pos:R:3:forces:R:3 energy=72.88381318546662 pbc="F F F"
Sb       0.00000000       0.00000000       0.00000000       0.00000000       0.00000000     -54.77375412
Sb       0.00000000       0.00000000       0.94424242       0.00000000       0.00000000      54.77375412
2
Properties=species:S:1:pos:R:3:forces:R:3 energy=68.99588978942187 pbc="F F F"
Sb       0.00000000       0.00000000       0.00000000       0.00000000       0.00000000     -78.28065491
Sb       0.00000000       0.00000000       1.00303030       0.00000000       0.00000000      78.28065491
2
Properties=species:S:1:pos:R:3:forces:R:3 energy=63.66098714944038 pbc="F F F"
Sb       0.00000000       0.00000000       0.00000000       0.00000000       0.00000000    -102.87142181
Sb       0.00000000       0.00000000       1.06181818       0.00000000       0.00000000     102.87142181
2
Properties=species:S:1:pos:R:3:forces:R:3 energy=57.01351237867128 pbc="F F F"
Sb       0.00000000       0.00000000       0.00000000       0.00000000       0.00000000    -121.23651886
Sb       0.00000000       0.00000000       1.12060606       0.00000000       0.00000000     121.23651886
2
Properties=species:S:1:pos:R:3:forces:R:3 energy=49.885145870000805 pbc="F F F"
Sb       0.00000000       0.00000000       0.00000000       0.00000000       0.00000000    -115.61267853
Sb       0.00000000       0.00000000       1.17939394       0.00000000       0.00000000     115.61267853
2
Properties=species:S:1:pos:R:3:forces:R:3 energy=43.749116192060384 pbc="F F F"
Sb       0.00000000       0.00000000       0.00000000       0.00000000       0.00000000     -94.52015686
Sb       0.00000000       0.00000000       1.23818182       0.00000000       0.00000000      94.52015686
2
Properties=species:S:1:pos:R:3:forces:R:3 energy=38.558243283110365 pbc="F F F"
Sb       0.00000000       0.00000000       0.00000000       0.00000000       0.00000000     -84.31118011
Sb       0.00000000       0.00000000       1.29696970       0.00000000       0.00000000      84.31118011
2
Properties=species:S:1:pos:R:3:forces:R:3 energy=33.66526471562838 pbc="F F F"
Sb       0.00000000       0.00000000       0.00000000       0.00000000       0.00000000     -81.40914154
Sb       0.00000000       0.00000000       1.35575758       0.00000000       0.00000000      81.40914154
2
Properties=species:S:1:pos:R:3:forces:R:3 energy=29.099479443025466 pbc="F F F"
Sb       0.00000000       0.00000000       0.00000000       0.00000000       0.00000000     -73.99033356
Sb       0.00000000       0.00000000       1.41454545       0.00000000       0.00000000      73.99033356
2
Properties=species:S:1:pos:R:3:forces:R:3 energy=24.890829233215765 pbc="F F F"
Sb       0.00000000       0.00000000       0.00000000       0.00000000       0.00000000     -69.74529266
Sb       0.00000000       0.00000000       1.47333333       0.00000000       0.00000000      69.74529266
2
Properties=species:S:1:pos:R:3:forces:R:3 energy=20.877313639147616 pbc="F F F"
Sb       0.00000000       0.00000000       0.00000000       0.00000000       0.00000000     -66.71473694
Sb       0.00000000       0.00000000       1.53212121       0.00000000       0.00000000      66.71473694
2
Properties=species:S:1:pos:R:3:forces:R:3 energy=17.0660931200213 pbc="F F F"
Sb       0.00000000       0.00000000       0.00000000       0.00000000       0.00000000     -62.77560425
Sb       0.00000000       0.00000000       1.59090909       0.00000000       0.00000000      62.77560425
2
Properties=species:S:1:pos:R:3:forces:R:3 energy=13.511728641263657 pbc="F F F"
Sb       0.00000000       0.00000000       0.00000000       0.00000000       0.00000000     -58.05491638
Sb       0.00000000       0.00000000       1.64969697       0.00000000       0.00000000      58.05491638
2
Properties=species:S:1:pos:R:3:forces:R:3 energy=10.248824592227708 pbc="F F F"
Sb       0.00000000       0.00000000       0.00000000       0.00000000       0.00000000     -52.88065720
Sb       0.00000000       0.00000000       1.70848485       0.00000000       0.00000000      52.88065720
2
Properties=species:S:1:pos:R:3:forces:R:3 energy=7.303521578736092 pbc="F F F"
Sb       0.00000000       0.00000000       0.00000000       0.00000000       0.00000000     -47.23413467
Sb       0.00000000       0.00000000       1.76727273       0.00000000       0.00000000      47.23413467
2
Properties=species:S:1:pos:R:3:forces:R:3 energy=4.705080660652953 pbc="F F F"
Sb       0.00000000       0.00000000       0.00000000       0.00000000       0.00000000     -41.09441376
Sb       0.00000000       0.00000000       1.82606061       0.00000000       0.00000000      41.09441376
2
Properties=species:S:1:pos:R:3:forces:R:3 energy=2.4772981626116497 pbc="F F F"
Sb       0.00000000       0.00000000       0.00000000       0.00000000       0.00000000     -34.68130493
Sb       0.00000000       0.00000000       1.88484848       0.00000000       0.00000000      34.68130493
2
Properties=species:S:1:pos:R:3:forces:R:3 energy=0.6247527493691417 pbc="F F F"
Sb       0.00000000       0.00000000       0.00000000       0.00000000       0.00000000     -28.40415382
Sb       0.00000000       0.00000000       1.94363636       0.00000000       0.00000000      28.40415382
2
Properties=species:S:1:pos:R:3:forces:R:3 energy=-0.8734454831860415 pbc="F F F"
Sb       0.00000000       0.00000000       0.00000000       0.00000000       0.00000000     -22.68738365
Sb       0.00000000       0.00000000       2.00242424       0.00000000       0.00000000      22.68738365
2
Properties=species:S:1:pos:R:3:forces:R:3 energy=-2.058986194047529 pbc="F F F"
Sb       0.00000000       0.00000000       0.00000000       0.00000000       0.00000000     -17.79221535
Sb       0.00000000       0.00000000       2.06121212       0.00000000       0.00000000      17.79221535
2
Properties=species:S:1:pos:R:3:forces:R:3 energy=-2.982513799285782 pbc="F F F"
Sb       0.00000000       0.00000000       0.00000000       0.00000000       0.00000000     -13.76746082
Sb       0.00000000       0.00000000       2.12000000       0.00000000       0.00000000      13.76746082
2
Properties=species:S:1:pos:R:3:forces:R:3 energy=-3.693095443021973 pbc="F F F"
Sb       0.00000000       0.00000000       0.00000000       0.00000000       0.00000000     -10.52691650
Sb       0.00000000       0.00000000       2.17878788       0.00000000       0.00000000      10.52691650
2
Properties=species:S:1:pos:R:3:forces:R:3 energy=-4.233024552790777 pbc="F F F"
Sb       0.00000000       0.00000000       0.00000000       0.00000000       0.00000000      -7.93935966
Sb       0.00000000       0.00000000       2.23757576       0.00000000       0.00000000       7.93935966
2
Properties=species:S:1:pos:R:3:forces:R:3 energy=-4.636758357652873 pbc="F F F"
Sb       0.00000000       0.00000000       0.00000000       0.00000000       0.00000000      -5.87227297
Sb       0.00000000       0.00000000       2.29636364       0.00000000       0.00000000       5.87227297
2
Properties=species:S:1:pos:R:3:forces:R:3 energy=-4.931333458113963 pbc="F F F"
Sb       0.00000000       0.00000000       0.00000000       0.00000000       0.00000000      -4.20786619
Sb       0.00000000       0.00000000       2.35515152       0.00000000       0.00000000       4.20786619
2
Properties=species:S:1:pos:R:3:forces:R:3 energy=-5.137556558200893 pbc="F F F"
Sb       0.00000000       0.00000000       0.00000000       0.00000000       0.00000000      -2.85350966
Sb       0.00000000       0.00000000       2.41393939       0.00000000       0.00000000       2.85350966
2
Properties=species:S:1:pos:R:3:forces:R:3 energy=-5.271699596216485 pbc="F F F"
Sb       0.00000000       0.00000000       0.00000000       0.00000000       0.00000000      -1.74812913
Sb       0.00000000       0.00000000       2.47272727       0.00000000       0.00000000       1.74812913
2
Properties=species:S:1:pos:R:3:forces:R:3 energy=-5.347292156610295 pbc="F F F"
Sb       0.00000000       0.00000000       0.00000000       0.00000000       0.00000000      -0.85745931
Sb       0.00000000       0.00000000       2.53151515       0.00000000       0.00000000       0.85745931
2
Properties=species:S:1:pos:R:3:forces:R:3 energy=-5.3762941012496475 pbc="F F F"
Sb       0.00000000       0.00000000       0.00000000       0.00000000       0.00000000      -0.15944679
Sb       0.00000000       0.00000000       2.59030303       0.00000000       0.00000000       0.15944679
2
Properties=species:S:1:pos:R:3:forces:R:3 energy=-5.369316764840252 pbc="F F F"
Sb       0.00000000       0.00000000       0.00000000       0.00000000       0.00000000       0.37175456
Sb       0.00000000       0.00000000       2.64909091       0.00000000       0.00000000      -0.37175456
2
Properties=species:S:1:pos:R:3:forces:R:3 energy=-5.335138570736835 pbc="F F F"
Sb       0.00000000       0.00000000       0.00000000       0.00000000       0.00000000       0.77282953
Sb       0.00000000       0.00000000       2.70787879       0.00000000       0.00000000      -0.77282953
2
Properties=species:S:1:pos:R:3:forces:R:3 energy=-5.280177611032309 pbc="F F F"
Sb       0.00000000       0.00000000       0.00000000       0.00000000       0.00000000       1.08550274
Sb       0.00000000       0.00000000       2.76666667       0.00000000       0.00000000      -1.08550274
2
Properties=species:S:1:pos:R:3:forces:R:3 energy=-5.208552745070461 pbc="F F F"
Sb       0.00000000       0.00000000       0.00000000       0.00000000       0.00000000       1.34435320
Sb       0.00000000       0.00000000       2.82545455       0.00000000       0.00000000      -1.34435320
2
Properties=species:S:1:pos:R:3:forces:R:3 energy=-5.122781746066364 pbc="F F F"
Sb       0.00000000       0.00000000       0.00000000       0.00000000       0.00000000       1.56865418
Sb       0.00000000       0.00000000       2.88424242       0.00000000       0.00000000      -1.56865418
2
Properties=species:S:1:pos:R:3:forces:R:3 energy=-5.024687125316372 pbc="F F F"
Sb       0.00000000       0.00000000       0.00000000       0.00000000       0.00000000       1.76361465
Sb       0.00000000       0.00000000       2.94303030       0.00000000       0.00000000      -1.76361465
2
Properties=species:S:1:pos:R:3:forces:R:3 energy=-4.9160305393665995 pbc="F F F"
Sb       0.00000000       0.00000000       0.00000000       0.00000000       0.00000000       1.92757654
Sb       0.00000000       0.00000000       3.00181818       0.00000000       0.00000000      -1.92757654
2
Properties=species:S:1:pos:R:3:forces:R:3 energy=-4.7987108895178165 pbc="F F F"
Sb       0.00000000       0.00000000       0.00000000       0.00000000       0.00000000       2.05795074
Sb       0.00000000       0.00000000       3.06060606       0.00000000       0.00000000      -2.05795074
2
Properties=species:S:1:pos:R:3:forces:R:3 energy=-4.674763648263609 pbc="F F F"
Sb       0.00000000       0.00000000       0.00000000       0.00000000       0.00000000       2.15274715
Sb       0.00000000       0.00000000       3.11939394       0.00000000       0.00000000      -2.15274715
2
Properties=species:S:1:pos:R:3:forces:R:3 energy=-4.546335627942838 pbc="F F F"
Sb       0.00000000       0.00000000       0.00000000       0.00000000       0.00000000       2.20997691
Sb       0.00000000       0.00000000       3.17818182       0.00000000       0.00000000      -2.20997691
2
Properties=species:S:1:pos:R:3:forces:R:3 energy=-4.415695900956493 pbc="F F F"
Sb       0.00000000       0.00000000       0.00000000       0.00000000       0.00000000       2.22788763
Sb       0.00000000       0.00000000       3.23696970       0.00000000       0.00000000      -2.22788763
2
Properties=species:S:1:pos:R:3:forces:R:3 energy=-4.285161860248149 pbc="F F F"
Sb       0.00000000       0.00000000       0.00000000       0.00000000       0.00000000       2.20655608
Sb       0.00000000       0.00000000       3.29575758       0.00000000       0.00000000      -2.20655608
2
Properties=species:S:1:pos:R:3:forces:R:3 energy=-4.156967554777126 pbc="F F F"
Sb       0.00000000       0.00000000       0.00000000       0.00000000       0.00000000       2.14904475
Sb       0.00000000       0.00000000       3.35454545       0.00000000       0.00000000      -2.14904475
2
Properties=species:S:1:pos:R:3:forces:R:3 energy=-4.033089354020099 pbc="F F F"
Sb       0.00000000       0.00000000       0.00000000       0.00000000       0.00000000       2.06078291
Sb       0.00000000       0.00000000       3.41333333       0.00000000       0.00000000      -2.06078291
2
Properties=species:S:1:pos:R:3:forces:R:3 energy=-3.915148351772959 pbc="F F F"
Sb       0.00000000       0.00000000       0.00000000       0.00000000       0.00000000       1.94809628
Sb       0.00000000       0.00000000       3.47212121       0.00000000       0.00000000      -1.94809628
2
Properties=species:S:1:pos:R:3:forces:R:3 energy=-3.8043933789186393 pbc="F F F"
Sb       0.00000000       0.00000000       0.00000000       0.00000000       0.00000000       1.81743777
Sb       0.00000000       0.00000000       3.53090909       0.00000000       0.00000000      -1.81743777
2
Properties=species:S:1:pos:R:3:forces:R:3 energy=-3.7016875629352963 pbc="F F F"
Sb       0.00000000       0.00000000       0.00000000       0.00000000       0.00000000       1.67526662
Sb       0.00000000       0.00000000       3.58969697       0.00000000       0.00000000      -1.67526662
2
Properties=species:S:1:pos:R:3:forces:R:3 energy=-3.607521883803038 pbc="F F F"
Sb       0.00000000       0.00000000       0.00000000       0.00000000       0.00000000       1.52797675
Sb       0.00000000       0.00000000       3.64848485       0.00000000       0.00000000      -1.52797675
2
Properties=species:S:1:pos:R:3:forces:R:3 energy=-3.522016843700557 pbc="F F F"
Sb       0.00000000       0.00000000       0.00000000       0.00000000       0.00000000       1.38158166
Sb       0.00000000       0.00000000       3.70727273       0.00000000       0.00000000      -1.38158166
2
Properties=species:S:1:pos:R:3:forces:R:3 energy=-3.4449602801721757 pbc="F F F"
Sb       0.00000000       0.00000000       0.00000000       0.00000000       0.00000000       1.24128044
Sb       0.00000000       0.00000000       3.76606061       0.00000000       0.00000000      -1.24128044
2
Properties=species:S:1:pos:R:3:forces:R:3 energy=-3.375874417105536 pbc="F F F"
Sb       0.00000000       0.00000000       0.00000000       0.00000000       0.00000000       1.11102962
Sb       0.00000000       0.00000000       3.82484848       0.00000000       0.00000000      -1.11102962
2
Properties=species:S:1:pos:R:3:forces:R:3 energy=-3.314085358419866 pbc="F F F"
Sb       0.00000000       0.00000000       0.00000000       0.00000000       0.00000000       0.99323082
Sb       0.00000000       0.00000000       3.88363636       0.00000000       0.00000000      -0.99323082
2
Properties=species:S:1:pos:R:3:forces:R:3 energy=-3.2588317307504684 pbc="F F F"
Sb       0.00000000       0.00000000       0.00000000       0.00000000       0.00000000       0.88876921
Sb       0.00000000       0.00000000       3.94242424       0.00000000       0.00000000      -0.88876921
2
Properties=species:S:1:pos:R:3:forces:R:3 energy=-3.209335863569986 pbc="F F F"
Sb       0.00000000       0.00000000       0.00000000       0.00000000       0.00000000       0.79717851
Sb       0.00000000       0.00000000       4.00121212       0.00000000       0.00000000      -0.79717851
2
Properties=species:S:1:pos:R:3:forces:R:3 energy=-3.164878301666052 pbc="F F F"
Sb       0.00000000       0.00000000       0.00000000       0.00000000       0.00000000       0.71703392
Sb       0.00000000       0.00000000       4.06000000       0.00000000       0.00000000      -0.71703392
2
Properties=species:S:1:pos:R:3:forces:R:3 energy=-3.1248446587278544 pbc="F F F"
Sb       0.00000000       0.00000000       0.00000000       0.00000000       0.00000000       0.64636552
Sb       0.00000000       0.00000000       4.11878788       0.00000000       0.00000000      -0.64636552
2
Properties=species:S:1:pos:R:3:forces:R:3 energy=-3.0887377663582885 pbc="F F F"
Sb       0.00000000       0.00000000       0.00000000       0.00000000       0.00000000       0.58303034
Sb       0.00000000       0.00000000       4.17757576       0.00000000       0.00000000      -0.58303034
2
Properties=species:S:1:pos:R:3:forces:R:3 energy=-3.056188794215975 pbc="F F F"
Sb       0.00000000       0.00000000       0.00000000       0.00000000       0.00000000       0.52504408
Sb       0.00000000       0.00000000       4.23636364       0.00000000       0.00000000      -0.52504408
2
Properties=species:S:1:pos:R:3:forces:R:3 energy=-3.026932021995385 pbc="F F F"
Sb       0.00000000       0.00000000       0.00000000       0.00000000       0.00000000       0.47079036
Sb       0.00000000       0.00000000       4.29515152       0.00000000       0.00000000      -0.47079036
2
Properties=species:S:1:pos:R:3:forces:R:3 energy=-3.000784523162464 pbc="F F F"
Sb       0.00000000       0.00000000       0.00000000       0.00000000       0.00000000       0.41916770
Sb       0.00000000       0.00000000       4.35393939       0.00000000       0.00000000      -0.41916770
2
Properties=species:S:1:pos:R:3:forces:R:3 energy=-2.9776084029522902 pbc="F F F"
Sb       0.00000000       0.00000000       0.00000000       0.00000000       0.00000000       0.36961484
Sb       0.00000000       0.00000000       4.41272727       0.00000000       0.00000000      -0.36961484
2
Properties=species:S:1:pos:R:3:forces:R:3 energy=-2.9572866674074305 pbc="F F F"
Sb       0.00000000       0.00000000       0.00000000       0.00000000       0.00000000       0.32210121
Sb       0.00000000       0.00000000       4.47151515       0.00000000       0.00000000      -0.32210121
2
Properties=species:S:1:pos:R:3:forces:R:3 energy=-2.939689241226823 pbc="F F F"
Sb       0.00000000       0.00000000       0.00000000       0.00000000       0.00000000       0.27701876
Sb       0.00000000       0.00000000       4.53030303       0.00000000       0.00000000      -0.27701876
2
Properties=species:S:1:pos:R:3:forces:R:3 energy=-2.924655474510482 pbc="F F F"
Sb       0.00000000       0.00000000       0.00000000       0.00000000       0.00000000       0.23503068
Sb       0.00000000       0.00000000       4.58909091       0.00000000       0.00000000      -0.23503068
2
Properties=species:S:1:pos:R:3:forces:R:3 energy=-2.9119805085509793 pbc="F F F"
Sb       0.00000000       0.00000000       0.00000000       0.00000000       0.00000000       0.19688943
Sb       0.00000000       0.00000000       4.64787879       0.00000000       0.00000000      -0.19688943
2
Properties=species:S:1:pos:R:3:forces:R:3 energy=-2.9014174826211954 pbc="F F F"
Sb       0.00000000       0.00000000       0.00000000       0.00000000       0.00000000       0.16326304
Sb       0.00000000       0.00000000       4.70666667       0.00000000       0.00000000      -0.16326304
2
Properties=species:S:1:pos:R:3:forces:R:3 energy=-2.8926868196276145 pbc="F F F"
Sb       0.00000000       0.00000000       0.00000000       0.00000000       0.00000000       0.13461530
Sb       0.00000000       0.00000000       4.76545455       0.00000000       0.00000000      -0.13461530
2
Properties=species:S:1:pos:R:3:forces:R:3 energy=-2.885488312597951 pbc="F F F"
Sb       0.00000000       0.00000000       0.00000000       0.00000000       0.00000000       0.11112588
Sb       0.00000000       0.00000000       4.82424242       0.00000000       0.00000000      -0.11112588
2
Properties=species:S:1:pos:R:3:forces:R:3 energy=-2.8795215779937964 pbc="F F F"
Sb       0.00000000       0.00000000       0.00000000       0.00000000       0.00000000       0.09272373
Sb       0.00000000       0.00000000       4.88303030       0.00000000       0.00000000      -0.09272373
2
Properties=species:S:1:pos:R:3:forces:R:3 energy=-2.8744928763986604 pbc="F F F"
Sb       0.00000000       0.00000000       0.00000000       0.00000000       0.00000000       0.07910772
Sb       0.00000000       0.00000000       4.94181818       0.00000000       0.00000000      -0.07910772
2
Properties=species:S:1:pos:R:3:forces:R:3 energy=-2.8701351840281264 pbc="F F F"
Sb       0.00000000       0.00000000       0.00000000       0.00000000       0.00000000       0.06982137
Sb       0.00000000       0.00000000       5.00060606       0.00000000       0.00000000      -0.06982137
2
Properties=species:S:1:pos:R:3:forces:R:3 energy=-2.8662108026629314 pbc="F F F"
Sb       0.00000000       0.00000000       0.00000000       0.00000000       0.00000000       0.06422195
Sb       0.00000000       0.00000000       5.05939394       0.00000000       0.00000000      -0.06422195
2
Properties=species:S:1:pos:R:3:forces:R:3 energy=-2.862529673530048 pbc="F F F"
Sb       0.00000000       0.00000000       0.00000000       0.00000000       0.00000000       0.06137764
Sb       0.00000000       0.00000000       5.11818182       0.00000000       0.00000000      -0.06137764
2
Properties=species:S:1:pos:R:3:forces:R:3 energy=-2.858966120456198 pbc="F F F"
Sb       0.00000000       0.00000000       0.00000000       0.00000000       0.00000000       0.05997900
Sb       0.00000000       0.00000000       5.17696970       0.00000000       0.00000000      -0.05997900
2
Properties=species:S:1:pos:R:3:forces:R:3 energy=-2.8554767692751493 pbc="F F F"
Sb       0.00000000       0.00000000       0.00000000       0.00000000       0.00000000       0.05866533
Sb       0.00000000       0.00000000       5.23575758       0.00000000       0.00000000      -0.05866533
2
Properties=species:S:1:pos:R:3:forces:R:3 energy=-2.852077402218612 pbc="F F F"
Sb       0.00000000       0.00000000       0.00000000       0.00000000       0.00000000       0.05695300
Sb       0.00000000       0.00000000       5.29454545       0.00000000       0.00000000      -0.05695300
2
Properties=species:S:1:pos:R:3:forces:R:3 energy=-2.848773180468115 pbc="F F F"
Sb       0.00000000       0.00000000       0.00000000       0.00000000       0.00000000       0.05559666
Sb       0.00000000       0.00000000       5.35333333       0.00000000       0.00000000      -0.05559666
2
Properties=species:S:1:pos:R:3:forces:R:3 energy=-2.845524120978367 pbc="F F F"
Sb       0.00000000       0.00000000       0.00000000       0.00000000       0.00000000       0.05501825
Sb       0.00000000       0.00000000       5.41212121       0.00000000       0.00000000      -0.05501825
2
Properties=species:S:1:pos:R:3:forces:R:3 energy=-2.8423170782973033 pbc="F F F"
Sb       0.00000000       0.00000000       0.00000000       0.00000000       0.00000000       0.05375597
Sb       0.00000000       0.00000000       5.47090909       0.00000000       0.00000000      -0.05375597
2
Properties=species:S:1:pos:R:3:forces:R:3 energy=-2.839265981739615 pbc="F F F"
Sb       0.00000000       0.00000000       0.00000000       0.00000000       0.00000000       0.04932166
Sb       0.00000000       0.00000000       5.52969697       0.00000000       0.00000000      -0.04932166
2
Properties=species:S:1:pos:R:3:forces:R:3 energy=-2.8366104341776324 pbc="F F F"
Sb       0.00000000       0.00000000       0.00000000       0.00000000       0.00000000       0.04027306
Sb       0.00000000       0.00000000       5.58848485       0.00000000       0.00000000      -0.04027306
2
Properties=species:S:1:pos:R:3:forces:R:3 energy=-2.8345979522701774 pbc="F F F"
Sb       0.00000000       0.00000000       0.00000000       0.00000000       0.00000000       0.02795513
Sb       0.00000000       0.00000000       5.64727273       0.00000000       0.00000000      -0.02795513
2
Properties=species:S:1:pos:R:3:forces:R:3 energy=-2.8333101917885792 pbc="F F F"
Sb       0.00000000       0.00000000       0.00000000       0.00000000       0.00000000       0.01633471
Sb       0.00000000       0.00000000       5.70606061       0.00000000       0.00000000      -0.01633471
2
Properties=species:S:1:pos:R:3:forces:R:3 energy=-2.8325895772587977 pbc="F F F"
Sb       0.00000000       0.00000000       0.00000000       0.00000000       0.00000000       0.00905000
Sb       0.00000000       0.00000000       5.76484848       0.00000000       0.00000000      -0.00905000
2
Properties=species:S:1:pos:R:3:forces:R:3 energy=-2.832147315081221 pbc="F F F"
Sb       0.00000000       0.00000000       0.00000000       0.00000000       0.00000000       0.00668775
Sb       0.00000000       0.00000000       5.82363636       0.00000000       0.00000000      -0.00668775
2
Properties=species:S:1:pos:R:3:forces:R:3 energy=-2.8317455508687894 pbc="F F F"
Sb       0.00000000       0.00000000       0.00000000       0.00000000       0.00000000       0.00722683
Sb       0.00000000       0.00000000       5.88242424       0.00000000       0.00000000      -0.00722683
2
Properties=species:S:1:pos:R:3:forces:R:3 energy=-2.8312887534548787 pbc="F F F"
Sb       0.00000000       0.00000000       0.00000000       0.00000000       0.00000000       0.00825817
Sb       0.00000000       0.00000000       5.94121212       0.00000000       0.00000000      -0.00825817
2
Properties=species:S:1:pos:R:3:forces:R:3 energy=-2.830792932762063 pbc="F F F"
Sb       0.00000000       0.00000000       0.00000000       0.00000000       0.00000000       0.00839876
Sb       0.00000000       0.00000000       6.00000000       0.00000000       0.00000000      -0.00839876
