2
Properties=species:S:1:pos:R:3:forces:R:3 energy=1364.3050460916597 pbc="F F F"
Si       0.00000000       0.00000000       0.00000000       0.00000000       0.00000000  -19524.37500000
Si       0.00000000       0.00000000       0.18000000       0.00000000       0.00000000   19524.37500000
2
Properties=species:S:1:pos:R:3:forces:R:3 energy=636.1223678690035 pbc="F F F"
Si       0.00000000       0.00000000       0.00000000       0.00000000       0.00000000   -7519.18457031
Si       0.00000000       0.00000000       0.23878788       0.00000000       0.00000000    7519.18457031
2
Properties=species:S:1:pos:R:3:forces:R:3 energy=334.9636459451754 pbc="F F F"
Si       0.00000000       0.00000000       0.00000000       0.00000000       0.00000000   -3378.63574219
Si       0.00000000       0.00000000       0.29757576       0.00000000       0.00000000    3378.63574219
2
Properties=species:S:1:pos:R:3:forces:R:3 energy=192.92600251889385 pbc="F F F"
Si       0.00000000       0.00000000       0.00000000       0.00000000       0.00000000   -1682.72338867
Si       0.00000000       0.00000000       0.35636364       0.00000000       0.00000000    1682.72338867
2
Properties=species:S:1:pos:R:3:forces:R:3 energy=119.80619814924093 pbc="F F F"
Si       0.00000000       0.00000000       0.00000000       0.00000000       0.00000000    -897.96508789
Si       0.00000000       0.00000000       0.41515152       0.00000000       0.00000000     897.96508789
2
Properties=species:S:1:pos:R:3:forces:R:3 energy=79.93173986793086 pbc="F F F"
Si       0.00000000       0.00000000       0.00000000       0.00000000       0.00000000    -500.75531006
Si       0.00000000       0.00000000       0.47393939       0.00000000       0.00000000     500.75531006
2
Properties=species:S:1:pos:R:3:forces:R:3 energy=57.436618913250925 pbc="F F F"
Si       0.00000000       0.00000000       0.00000000       0.00000000       0.00000000    -285.24841309
Si       0.00000000       0.00000000       0.53272727       0.00000000       0.00000000     285.24841309
2
Properties=species:S:1:pos:R:3:forces:R:3 energy=44.61630650194995 pbc="F F F"
Si       0.00000000       0.00000000       0.00000000       0.00000000       0.00000000    -161.89994812
Si       0.00000000       0.00000000       0.59151515       0.00000000       0.00000000     161.89994812
2
Properties=species:S:1:pos:R:3:forces:R:3 energy=37.41861378291166 pbc="F F F"
Si       0.00000000       0.00000000       0.00000000       0.00000000       0.00000000     -89.36520386
Si       0.00000000       0.00000000       0.65030303       0.00000000       0.00000000      89.36520386
2
Properties=species:S:1:pos:R:3:forces:R:3 energy=33.50571117896361 pbc="F F F"
Si       0.00000000       0.00000000       0.00000000       0.00000000       0.00000000     -47.90351486
Si       0.00000000       0.00000000       0.70909091       0.00000000       0.00000000      47.90351486
2
Properties=species:S:1:pos:R:3:forces:R:3 energy=31.389513950867936 pbc="F F F"
Si       0.00000000       0.00000000       0.00000000       0.00000000       0.00000000     -26.74646759
Si       0.00000000       0.00000000       0.76787879       0.00000000       0.00000000      26.74646759
2
Properties=species:S:1:pos:R:3:forces:R:3 energy=30.125134972215818 pbc="F F F"
Si       0.00000000       0.00000000       0.00000000       0.00000000       0.00000000     -17.70423698
Si       0.00000000       0.00000000       0.82666667       0.00000000       0.00000000      17.70423698
2
Properties=species:S:1:pos:R:3:forces:R:3 energy=29.18482238375627 pbc="F F F"
Si       0.00000000       0.00000000       0.00000000       0.00000000       0.00000000     -15.06540966
Si       0.00000000       0.00000000       0.88545455       0.00000000       0.00000000      15.06540966
2
Properties=species:S:1:pos:R:3:forces:R:3 energy=28.282910743096416 pbc="F F F"
Si       0.00000000       0.00000000       0.00000000       0.00000000       0.00000000     -16.06952286
Si       0.00000000       0.00000000       0.94424242       0.00000000       0.00000000      16.06952286
2
Properties=species:S:1:pos:R:3:forces:R:3 energy=27.23407452588015 pbc="F F F"
Si       0.00000000       0.00000000       0.00000000       0.00000000       0.00000000     -20.47624397
Si       0.00000000       0.00000000       1.00303030       0.00000000       0.00000000      20.47624397
2
Properties=species:S:1:pos:R:3:forces:R:3 energy=25.734208081146438 pbc="F F F"
Si       0.00000000       0.00000000       0.00000000       0.00000000       0.00000000     -31.68950272
Si       0.00000000       0.00000000       1.06181818       0.00000000       0.00000000      31.68950272
2
Properties=species:S:1:pos:R:3:forces:R:3 energy=23.44251030293013 pbc="F F F"
Si       0.00000000       0.00000000       0.00000000       0.00000000       0.00000000     -46.19161224
Si       0.00000000       0.00000000       1.12060606       0.00000000       0.00000000      46.19161224
2
Properties=species:S:1:pos:R:3:forces:R:3 energy=20.370898470215796 pbc="F F F"
Si       0.00000000       0.00000000       0.00000000       0.00000000       0.00000000     -57.34685135
Si       0.00000000       0.00000000       1.17939394       0.00000000       0.00000000      57.34685135
2
Properties=species:S:1:pos:R:3:forces:R:3 energy=16.846021488398787 pbc="F F F"
Si       0.00000000       0.00000000       0.00000000       0.00000000       0.00000000     -61.13558197
Si       0.00000000       0.00000000       1.23818182       0.00000000       0.00000000      61.13558197
2
Properties=species:S:1:pos:R:3:forces:R:3 energy=13.338036245675532 pbc="F F F"
Si       0.00000000       0.00000000       0.00000000       0.00000000       0.00000000     -57.28649902
Si       0.00000000       0.00000000       1.29696970       0.00000000       0.00000000      57.28649902
2
Properties=species:S:1:pos:R:3:forces:R:3 energy=10.150836106940991 pbc="F F F"
Si       0.00000000       0.00000000       0.00000000       0.00000000       0.00000000     -51.23718262
Si       0.00000000       0.00000000       1.35575758       0.00000000       0.00000000      51.23718262
2
Properties=species:S:1:pos:R:3:forces:R:3 energy=7.292451288707655 pbc="F F F"
Si       0.00000000       0.00000000       0.00000000       0.00000000       0.00000000     -46.11831665
Si       0.00000000       0.00000000       1.41454545       0.00000000       0.00000000      46.11831665
2
Properties=species:S:1:pos:R:3:forces:R:3 energy=4.732200580013691 pbc="F F F"
Si       0.00000000       0.00000000       0.00000000       0.00000000       0.00000000     -40.83554840
Si       0.00000000       0.00000000       1.47333333       0.00000000       0.00000000      40.83554840
2
Properties=species:S:1:pos:R:3:forces:R:3 energy=2.5109388182061068 pbc="F F F"
Si       0.00000000       0.00000000       0.00000000       0.00000000       0.00000000     -34.60831070
Si       0.00000000       0.00000000       1.53212121       0.00000000       0.00000000      34.60831070
2
Properties=species:S:1:pos:R:3:forces:R:3 energy=0.6667548908429058 pbc="F F F"
Si       0.00000000       0.00000000       0.00000000       0.00000000       0.00000000     -28.19355202
Si       0.00000000       0.00000000       1.59090909       0.00000000       0.00000000      28.19355202
2
Properties=species:S:1:pos:R:3:forces:R:3 energy=-0.8182555507122716 pbc="F F F"
Si       0.00000000       0.00000000       0.00000000       0.00000000       0.00000000     -22.48303032
Si       0.00000000       0.00000000       1.64969697       0.00000000       0.00000000      22.48303032
2
Properties=species:S:1:pos:R:3:forces:R:3 energy=-1.995755209449181 pbc="F F F"
Si       0.00000000       0.00000000       0.00000000       0.00000000       0.00000000     -17.73508453
Si       0.00000000       0.00000000       1.70848485       0.00000000       0.00000000      17.73508453
2
Properties=species:S:1:pos:R:3:forces:R:3 energy=-2.92089288463258 pbc="F F F"
Si       0.00000000       0.00000000       0.00000000       0.00000000       0.00000000     -13.87334061
Si       0.00000000       0.00000000       1.76727273       0.00000000       0.00000000      13.87334061
2
Properties=species:S:1:pos:R:3:forces:R:3 energy=-3.640765132974651 pbc="F F F"
Si       0.00000000       0.00000000       0.00000000       0.00000000       0.00000000     -10.71732807
Si       0.00000000       0.00000000       1.82606061       0.00000000       0.00000000      10.71732807
2
Properties=species:S:1:pos:R:3:forces:R:3 energy=-4.190883978176322 pbc="F F F"
Si       0.00000000       0.00000000       0.00000000       0.00000000       0.00000000      -8.06808186
Si       0.00000000       0.00000000       1.88484848       0.00000000       0.00000000       8.06808186
2
Properties=species:S:1:pos:R:3:forces:R:3 energy=-4.596501856824309 pbc="F F F"
Si       0.00000000       0.00000000       0.00000000       0.00000000       0.00000000      -5.78567600
Si       0.00000000       0.00000000       1.94363636       0.00000000       0.00000000       5.78567600
2
Properties=species:S:1:pos:R:3:forces:R:3 energy=-4.877298059513139 pbc="F F F"
Si       0.00000000       0.00000000       0.00000000       0.00000000       0.00000000      -3.81962419
Si       0.00000000       0.00000000       2.00242424       0.00000000       0.00000000       3.81962419
2
Properties=species:S:1:pos:R:3:forces:R:3 energy=-5.051968148276757 pbc="F F F"
Si       0.00000000       0.00000000       0.00000000       0.00000000       0.00000000      -2.17891932
Si       0.00000000       0.00000000       2.06121212       0.00000000       0.00000000       2.17891932
2
Properties=species:S:1:pos:R:3:forces:R:3 energy=-5.140213721190061 pbc="F F F"
Si       0.00000000       0.00000000       0.00000000       0.00000000       0.00000000      -0.88066030
Si       0.00000000       0.00000000       2.12000000       0.00000000       0.00000000       0.88066030
2
Properties=species:S:1:pos:R:3:forces:R:3 energy=-5.162074051399852 pbc="F F F"
Si       0.00000000       0.00000000       0.00000000       0.00000000       0.00000000       0.08389347
Si       0.00000000       0.00000000       2.17878788       0.00000000       0.00000000      -0.08389347
2
Properties=species:S:1:pos:R:3:forces:R:3 energy=-5.136089974130101 pbc="F F F"
Si       0.00000000       0.00000000       0.00000000       0.00000000       0.00000000       0.75634545
Si       0.00000000       0.00000000       2.23757576       0.00000000       0.00000000      -0.75634545
2
Properties=species:S:1:pos:R:3:forces:R:3 energy=-5.077607003801767 pbc="F F F"
Si       0.00000000       0.00000000       0.00000000       0.00000000       0.00000000       1.20137918
Si       0.00000000       0.00000000       2.29636364       0.00000000       0.00000000      -1.20137918
2
Properties=species:S:1:pos:R:3:forces:R:3 energy=-4.997896203040342 pbc="F F F"
Si       0.00000000       0.00000000       0.00000000       0.00000000       0.00000000       1.49008536
Si       0.00000000       0.00000000       2.35515152       0.00000000       0.00000000      -1.49008536
2
Properties=species:S:1:pos:R:3:forces:R:3 energy=-4.904211290437369 pbc="F F F"
Si       0.00000000       0.00000000       0.00000000       0.00000000       0.00000000       1.68619633
Si       0.00000000       0.00000000       2.41393939       0.00000000       0.00000000      -1.68619633
2
Properties=species:S:1:pos:R:3:forces:R:3 energy=-4.800504228269684 pbc="F F F"
Si       0.00000000       0.00000000       0.00000000       0.00000000       0.00000000       1.83752513
Si       0.00000000       0.00000000       2.47272727       0.00000000       0.00000000      -1.83752513
2
Properties=species:S:1:pos:R:3:forces:R:3 energy=-4.688472312614645 pbc="F F F"
Si       0.00000000       0.00000000       0.00000000       0.00000000       0.00000000       1.97246873
Si       0.00000000       0.00000000       2.53151515       0.00000000       0.00000000      -1.97246873
2
Properties=species:S:1:pos:R:3:forces:R:3 energy=-4.568712710921821 pbc="F F F"
Si       0.00000000       0.00000000       0.00000000       0.00000000       0.00000000       2.10067916
Si       0.00000000       0.00000000       2.59030303       0.00000000       0.00000000      -2.10067916
2
Properties=species:S:1:pos:R:3:forces:R:3 energy=-4.441693443740288 pbc="F F F"
Si       0.00000000       0.00000000       0.00000000       0.00000000       0.00000000       2.21800876
Si       0.00000000       0.00000000       2.64909091       0.00000000       0.00000000      -2.21800876
2
Properties=species:S:1:pos:R:3:forces:R:3 energy=-4.3083253569315225 pbc="F F F"
Si       0.00000000       0.00000000       0.00000000       0.00000000       0.00000000       2.31524444
Si       0.00000000       0.00000000       2.70787879       0.00000000       0.00000000      -2.31524444
2
Properties=species:S:1:pos:R:3:forces:R:3 energy=-4.16998707499771 pbc="F F F"
Si       0.00000000       0.00000000       0.00000000       0.00000000       0.00000000       2.38656497
Si       0.00000000       0.00000000       2.76666667       0.00000000       0.00000000      -2.38656497
2
Properties=species:S:1:pos:R:3:forces:R:3 energy=-4.028256403932856 pbc="F F F"
Si       0.00000000       0.00000000       0.00000000       0.00000000       0.00000000       2.43060970
Si       0.00000000       0.00000000       2.82545455       0.00000000       0.00000000      -2.43060970
2
Properties=species:S:1:pos:R:3:forces:R:3 energy=-3.884759507066966 pbc="F F F"
Si       0.00000000       0.00000000       0.00000000       0.00000000       0.00000000       2.44650865
Si       0.00000000       0.00000000       2.88424242       0.00000000       0.00000000      -2.44650865
2
Properties=species:S:1:pos:R:3:forces:R:3 energy=-3.7411571265786248 pbc="F F F"
Si       0.00000000       0.00000000       0.00000000       0.00000000       0.00000000       2.43436098
Si       0.00000000       0.00000000       2.94303030       0.00000000       0.00000000      -2.43436098
2
Properties=species:S:1:pos:R:3:forces:R:3 energy=-3.599043260267191 pbc="F F F"
Si       0.00000000       0.00000000       0.00000000       0.00000000       0.00000000       2.39645219
Si       0.00000000       0.00000000       3.00181818       0.00000000       0.00000000      -2.39645219
2
Properties=species:S:1:pos:R:3:forces:R:3 energy=-3.459842798081071 pbc="F F F"
Si       0.00000000       0.00000000       0.00000000       0.00000000       0.00000000       2.33560157
Si       0.00000000       0.00000000       3.06060606       0.00000000       0.00000000      -2.33560157
2
Properties=species:S:1:pos:R:3:forces:R:3 energy=-3.324838497838509 pbc="F F F"
Si       0.00000000       0.00000000       0.00000000       0.00000000       0.00000000       2.25403881
Si       0.00000000       0.00000000       3.11939394       0.00000000       0.00000000      -2.25403881
2
Properties=species:S:1:pos:R:3:forces:R:3 energy=-3.1951866894626146 pbc="F F F"
Si       0.00000000       0.00000000       0.00000000       0.00000000       0.00000000       2.15386796
Si       0.00000000       0.00000000       3.17818182       0.00000000       0.00000000      -2.15386796
2
Properties=species:S:1:pos:R:3:forces:R:3 energy=-3.0719052909211557 pbc="F F F"
Si       0.00000000       0.00000000       0.00000000       0.00000000       0.00000000       2.03793955
Si       0.00000000       0.00000000       3.23696970       0.00000000       0.00000000      -2.03793955
2
Properties=species:S:1:pos:R:3:forces:R:3 energy=-2.955805421997243 pbc="F F F"
Si       0.00000000       0.00000000       0.00000000       0.00000000       0.00000000       1.91024625
Si       0.00000000       0.00000000       3.29575758       0.00000000       0.00000000      -1.91024625
2
Properties=species:S:1:pos:R:3:forces:R:3 energy=-2.8474427652680254 pbc="F F F"
Si       0.00000000       0.00000000       0.00000000       0.00000000       0.00000000       1.77564347
Si       0.00000000       0.00000000       3.35454545       0.00000000       0.00000000      -1.77564347
2
Properties=species:S:1:pos:R:3:forces:R:3 energy=-2.7470693163731443 pbc="F F F"
Si       0.00000000       0.00000000       0.00000000       0.00000000       0.00000000       1.63913119
Si       0.00000000       0.00000000       3.41333333       0.00000000       0.00000000      -1.63913119
2
Properties=species:S:1:pos:R:3:forces:R:3 energy=-2.6546693889002153 pbc="F F F"
Si       0.00000000       0.00000000       0.00000000       0.00000000       0.00000000       1.50512183
Si       0.00000000       0.00000000       3.47212121       0.00000000       0.00000000      -1.50512183
2
Properties=species:S:1:pos:R:3:forces:R:3 energy=-2.5699893658622135 pbc="F F F"
Si       0.00000000       0.00000000       0.00000000       0.00000000       0.00000000       1.37696695
Si       0.00000000       0.00000000       3.53090909       0.00000000       0.00000000      -1.37696695
2
Properties=species:S:1:pos:R:3:forces:R:3 energy=-2.492613756728193 pbc="F F F"
Si       0.00000000       0.00000000       0.00000000       0.00000000       0.00000000       1.25682211
Si       0.00000000       0.00000000       3.58969697       0.00000000       0.00000000      -1.25682211
2
Properties=species:S:1:pos:R:3:forces:R:3 energy=-2.422037294036922 pbc="F F F"
Si       0.00000000       0.00000000       0.00000000       0.00000000       0.00000000       1.14580119
Si       0.00000000       0.00000000       3.64848485       0.00000000       0.00000000      -1.14580119
2
Properties=species:S:1:pos:R:3:forces:R:3 energy=-2.3577111604267316 pbc="F F F"
Si       0.00000000       0.00000000       0.00000000       0.00000000       0.00000000       1.04421711
Si       0.00000000       0.00000000       3.70727273       0.00000000       0.00000000      -1.04421711
2
Properties=species:S:1:pos:R:3:forces:R:3 energy=-2.299082076611202 pbc="F F F"
Si       0.00000000       0.00000000       0.00000000       0.00000000       0.00000000       0.95185781
Si       0.00000000       0.00000000       3.76606061       0.00000000       0.00000000      -0.95185781
2
Properties=species:S:1:pos:R:3:forces:R:3 energy=-2.2456243159930267 pbc="F F F"
Si       0.00000000       0.00000000       0.00000000       0.00000000       0.00000000       0.86823994
Si       0.00000000       0.00000000       3.82484848       0.00000000       0.00000000      -0.86823994
2
Properties=species:S:1:pos:R:3:forces:R:3 energy=-2.1968379755453378 pbc="F F F"
Si       0.00000000       0.00000000       0.00000000       0.00000000       0.00000000       0.79275739
Si       0.00000000       0.00000000       3.88363636       0.00000000       0.00000000      -0.79275739
2
Properties=species:S:1:pos:R:3:forces:R:3 energy=-2.152266310675892 pbc="F F F"
Si       0.00000000       0.00000000       0.00000000       0.00000000       0.00000000       0.72481513
Si       0.00000000       0.00000000       3.94242424       0.00000000       0.00000000      -0.72481513
2
Properties=species:S:1:pos:R:3:forces:R:3 energy=-2.1114815228110873 pbc="F F F"
Si       0.00000000       0.00000000       0.00000000       0.00000000       0.00000000       0.66385728
Si       0.00000000       0.00000000       4.00121212       0.00000000       0.00000000      -0.66385728
2
Properties=species:S:1:pos:R:3:forces:R:3 energy=-2.0740863364591715 pbc="F F F"
Si       0.00000000       0.00000000       0.00000000       0.00000000       0.00000000       0.60938072
Si       0.00000000       0.00000000       4.06000000       0.00000000       0.00000000      -0.60938072
2
Properties=species:S:1:pos:R:3:forces:R:3 energy=-2.0397152523236795 pbc="F F F"
Si       0.00000000       0.00000000       0.00000000       0.00000000       0.00000000       0.56091845
Si       0.00000000       0.00000000       4.11878788       0.00000000       0.00000000      -0.56091845
2
Properties=species:S:1:pos:R:3:forces:R:3 energy=-2.008027945275043 pbc="F F F"
Si       0.00000000       0.00000000       0.00000000       0.00000000       0.00000000       0.51798046
Si       0.00000000       0.00000000       4.17757576       0.00000000       0.00000000      -0.51798046
2
Properties=species:S:1:pos:R:3:forces:R:3 energy=-1.9787150074032942 pbc="F F F"
Si       0.00000000       0.00000000       0.00000000       0.00000000       0.00000000       0.48002911
Si       0.00000000       0.00000000       4.23636364       0.00000000       0.00000000      -0.48002911
2
Properties=species:S:1:pos:R:3:forces:R:3 energy=-1.951501817400225 pbc="F F F"
Si       0.00000000       0.00000000       0.00000000       0.00000000       0.00000000       0.44644067
Si       0.00000000       0.00000000       4.29515152       0.00000000       0.00000000      -0.44644067
2
Properties=species:S:1:pos:R:3:forces:R:3 energy=-1.926152759233901 pbc="F F F"
Si       0.00000000       0.00000000       0.00000000       0.00000000       0.00000000       0.41652897
Si       0.00000000       0.00000000       4.35393939       0.00000000       0.00000000      -0.41652897
2
Properties=species:S:1:pos:R:3:forces:R:3 energy=-1.9024710637575548 pbc="F F F"
Si       0.00000000       0.00000000       0.00000000       0.00000000       0.00000000       0.38956979
Si       0.00000000       0.00000000       4.41272727       0.00000000       0.00000000      -0.38956979
2
Properties=species:S:1:pos:R:3:forces:R:3 energy=-1.88030416520806 pbc="F F F"
Si       0.00000000       0.00000000       0.00000000       0.00000000       0.00000000       0.36487356
Si       0.00000000       0.00000000       4.47151515       0.00000000       0.00000000      -0.36487356
2
Properties=species:S:1:pos:R:3:forces:R:3 energy=-1.859537536000967 pbc="F F F"
Si       0.00000000       0.00000000       0.00000000       0.00000000       0.00000000       0.34184930
Si       0.00000000       0.00000000       4.53030303       0.00000000       0.00000000      -0.34184930
2
Properties=species:S:1:pos:R:3:forces:R:3 energy=-1.8400875294213948 pbc="F F F"
Si       0.00000000       0.00000000       0.00000000       0.00000000       0.00000000       0.32003862
Si       0.00000000       0.00000000       4.58909091       0.00000000       0.00000000      -0.32003862
2
Properties=species:S:1:pos:R:3:forces:R:3 energy=-1.821891865055624 pbc="F F F"
Si       0.00000000       0.00000000       0.00000000       0.00000000       0.00000000       0.29912052
Si       0.00000000       0.00000000       4.64787879       0.00000000       0.00000000      -0.29912052
2
Properties=species:S:1:pos:R:3:forces:R:3 energy=-1.8049049558701373 pbc="F F F"
Si       0.00000000       0.00000000       0.00000000       0.00000000       0.00000000       0.27886370
Si       0.00000000       0.00000000       4.70666667       0.00000000       0.00000000      -0.27886370
2
Properties=species:S:1:pos:R:3:forces:R:3 energy=-1.7890951121290244 pbc="F F F"
Si       0.00000000       0.00000000       0.00000000       0.00000000       0.00000000       0.25908077
Si       0.00000000       0.00000000       4.76545455       0.00000000       0.00000000      -0.25908077
2
Properties=species:S:1:pos:R:3:forces:R:3 energy=-1.77443732981594 pbc="F F F"
Si       0.00000000       0.00000000       0.00000000       0.00000000       0.00000000       0.23958346
Si       0.00000000       0.00000000       4.82424242       0.00000000       0.00000000      -0.23958346
2
Properties=species:S:1:pos:R:3:forces:R:3 energy=-1.7609240733231404 pbc="F F F"
Si       0.00000000       0.00000000       0.00000000       0.00000000       0.00000000       0.22020060
Si       0.00000000       0.00000000       4.88303030       0.00000000       0.00000000      -0.22020060
2
Properties=species:S:1:pos:R:3:forces:R:3 energy=-1.7485477833641405 pbc="F F F"
Si       0.00000000       0.00000000       0.00000000       0.00000000       0.00000000       0.20081998
Si       0.00000000       0.00000000       4.94181818       0.00000000       0.00000000      -0.20081998
2
Properties=species:S:1:pos:R:3:forces:R:3 energy=-1.7373109729174125 pbc="F F F"
Si       0.00000000       0.00000000       0.00000000       0.00000000       0.00000000       0.18150184
Si       0.00000000       0.00000000       5.00060606       0.00000000       0.00000000      -0.18150184
2
Properties=species:S:1:pos:R:3:forces:R:3 energy=-1.7271998657183245 pbc="F F F"
Si       0.00000000       0.00000000       0.00000000       0.00000000       0.00000000       0.16256210
Si       0.00000000       0.00000000       5.05939394       0.00000000       0.00000000      -0.16256210
2
Properties=species:S:1:pos:R:3:forces:R:3 energy=-1.7181768797382557 pbc="F F F"
Si       0.00000000       0.00000000       0.00000000       0.00000000       0.00000000       0.14468887
Si       0.00000000       0.00000000       5.11818182       0.00000000       0.00000000      -0.14468887
2
Properties=species:S:1:pos:R:3:forces:R:3 energy=-1.7101454291419529 pbc="F F F"
Si       0.00000000       0.00000000       0.00000000       0.00000000       0.00000000       0.12903297
Si       0.00000000       0.00000000       5.17696970       0.00000000       0.00000000      -0.12903297
2
Properties=species:S:1:pos:R:3:forces:R:3 energy=-1.702934751821622 pbc="F F F"
Si       0.00000000       0.00000000       0.00000000       0.00000000       0.00000000       0.11697324
Si       0.00000000       0.00000000       5.23575758       0.00000000       0.00000000      -0.11697324
2
Properties=species:S:1:pos:R:3:forces:R:3 energy=-1.6963152509653256 pbc="F F F"
Si       0.00000000       0.00000000       0.00000000       0.00000000       0.00000000       0.10873261
Si       0.00000000       0.00000000       5.29454545       0.00000000       0.00000000      -0.10873261
2
Properties=species:S:1:pos:R:3:forces:R:3 energy=-1.6901277254304523 pbc="F F F"
Si       0.00000000       0.00000000       0.00000000       0.00000000       0.00000000       0.10156129
Si       0.00000000       0.00000000       5.35333333       0.00000000       0.00000000      -0.10156129
2
Properties=species:S:1:pos:R:3:forces:R:3 energy=-1.6844413133408598 pbc="F F F"
Si       0.00000000       0.00000000       0.00000000       0.00000000       0.00000000       0.09109738
Si       0.00000000       0.00000000       5.41212121       0.00000000       0.00000000      -0.09109738
2
Properties=species:S:1:pos:R:3:forces:R:3 energy=-1.6795055905433203 pbc="F F F"
Si       0.00000000       0.00000000       0.00000000       0.00000000       0.00000000       0.07631814
Si       0.00000000       0.00000000       5.47090909       0.00000000       0.00000000      -0.07631814
2
Properties=species:S:1:pos:R:3:forces:R:3 energy=-1.6754652390052238 pbc="F F F"
Si       0.00000000       0.00000000       0.00000000       0.00000000       0.00000000       0.06171358
Si       0.00000000       0.00000000       5.52969697       0.00000000       0.00000000      -0.06171358
2
Properties=species:S:1:pos:R:3:forces:R:3 energy=-1.6721262797736345 pbc="F F F"
Si       0.00000000       0.00000000       0.00000000       0.00000000       0.00000000       0.05321430
Si       0.00000000       0.00000000       5.58848485       0.00000000       0.00000000      -0.05321430
2
Properties=species:S:1:pos:R:3:forces:R:3 energy=-1.669067435042576 pbc="F F F"
Si       0.00000000       0.00000000       0.00000000       0.00000000       0.00000000       0.05173315
Si       0.00000000       0.00000000       5.64727273       0.00000000       0.00000000      -0.05173315
2
Properties=species:S:1:pos:R:3:forces:R:3 energy=-1.6660232683935587 pbc="F F F"
Si       0.00000000       0.00000000       0.00000000       0.00000000       0.00000000       0.05130675
Si       0.00000000       0.00000000       5.70606061       0.00000000       0.00000000      -0.05130675
2
Properties=species:S:1:pos:R:3:forces:R:3 energy=-1.6631415948736294 pbc="F F F"
Si       0.00000000       0.00000000       0.00000000       0.00000000       0.00000000       0.04538224
Si       0.00000000       0.00000000       5.76484848       0.00000000       0.00000000      -0.04538224
2
Properties=species:S:1:pos:R:3:forces:R:3 energy=-1.6608069146145257 pbc="F F F"
Si       0.00000000       0.00000000       0.00000000       0.00000000       0.00000000       0.03336401
Si       0.00000000       0.00000000       5.82363636       0.00000000       0.00000000      -0.03336401
2
Properties=species:S:1:pos:R:3:forces:R:3 energy=-1.6592572813036586 pbc="F F F"
Si       0.00000000       0.00000000       0.00000000       0.00000000       0.00000000       0.01969958
Si       0.00000000       0.00000000       5.88242424       0.00000000       0.00000000      -0.01969958
2
Properties=species:S:1:pos:R:3:forces:R:3 energy=-1.658427563351154 pbc="F F F"
Si       0.00000000       0.00000000       0.00000000       0.00000000       0.00000000       0.00930698
Si       0.00000000       0.00000000       5.94121212       0.00000000       0.00000000      -0.00930698
2
Properties=species:S:1:pos:R:3:forces:R:3 energy=-1.658035731616598 pbc="F F F"
Si       0.00000000       0.00000000       0.00000000       0.00000000       0.00000000       0.00526128
Si       0.00000000       0.00000000       6.00000000       0.00000000       0.00000000      -0.00526128
