2
Properties=species:S:1:pos:R:3:forces:R:3 energy=7010.923489237887 pbc="F F F"
Tc       0.00000000       0.00000000       0.00000000       0.00000000       0.00000000 -114828.10937500
Tc       0.00000000       0.00000000       0.18000000       0.00000000       0.00000000  114828.10937500
2
Properties=species:S:1:pos:R:3:forces:R:3 energy=2908.1412626753877 pbc="F F F"
Tc       0.00000000       0.00000000       0.00000000       0.00000000       0.00000000  -40061.58593750
Tc       0.00000000       0.00000000       0.23878788       0.00000000       0.00000000   40061.58593750
2
Properties=species:S:1:pos:R:3:forces:R:3 energy=1363.986355448825 pbc="F F F"
Tc       0.00000000       0.00000000       0.00000000       0.00000000       0.00000000  -16472.33203125
Tc       0.00000000       0.00000000       0.29757576       0.00000000       0.00000000   16472.33203125
2
Properties=species:S:1:pos:R:3:forces:R:3 energy=698.039395005942 pbc="F F F"
Tc       0.00000000       0.00000000       0.00000000       0.00000000       0.00000000   -7501.63232422
Tc       0.00000000       0.00000000       0.35636364       0.00000000       0.00000000    7501.63232422
2
Properties=species:S:1:pos:R:3:forces:R:3 energy=384.8676726001682 pbc="F F F"
Tc       0.00000000       0.00000000       0.00000000       0.00000000       0.00000000   -3659.37353516
Tc       0.00000000       0.00000000       0.41515152       0.00000000       0.00000000    3659.37353516
2
Properties=species:S:1:pos:R:3:forces:R:3 energy=228.51946705910453 pbc="F F F"
Tc       0.00000000       0.00000000       0.00000000       0.00000000       0.00000000   -1875.40197754
Tc       0.00000000       0.00000000       0.47393939       0.00000000       0.00000000    1875.40197754
2
Properties=species:S:1:pos:R:3:forces:R:3 energy=147.06945489008714 pbc="F F F"
Tc       0.00000000       0.00000000       0.00000000       0.00000000       0.00000000    -993.98748779
Tc       0.00000000       0.00000000       0.53272727       0.00000000       0.00000000     993.98748779
2
Properties=species:S:1:pos:R:3:forces:R:3 energy=103.55126648955238 pbc="F F F"
Tc       0.00000000       0.00000000       0.00000000       0.00000000       0.00000000    -534.04650879
Tc       0.00000000       0.00000000       0.59151515       0.00000000       0.00000000     534.04650879
2
Properties=species:S:1:pos:R:3:forces:R:3 energy=80.24297802303958 pbc="F F F"
Tc       0.00000000       0.00000000       0.00000000       0.00000000       0.00000000    -283.57800293
Tc       0.00000000       0.00000000       0.65030303       0.00000000       0.00000000     283.57800293
2
Properties=species:S:1:pos:R:3:forces:R:3 energy=68.05179320921468 pbc="F F F"
Tc       0.00000000       0.00000000       0.00000000       0.00000000       0.00000000    -144.53465271
Tc       0.00000000       0.00000000       0.70909091       0.00000000       0.00000000     144.53465271
2
Properties=species:S:1:pos:R:3:forces:R:3 energy=62.09483852559269 pbc="F F F"
Tc       0.00000000       0.00000000       0.00000000       0.00000000       0.00000000     -65.28362274
Tc       0.00000000       0.00000000       0.76787879       0.00000000       0.00000000      65.28362274
2
Properties=species:S:1:pos:R:3:forces:R:3 energy=59.70860082659375 pbc="F F F"
Tc       0.00000000       0.00000000       0.00000000       0.00000000       0.00000000     -20.65104294
Tc       0.00000000       0.00000000       0.82666667       0.00000000       0.00000000      20.65104294
2
Properties=species:S:1:pos:R:3:forces:R:3 energy=59.159643584765995 pbc="F F F"
Tc       0.00000000       0.00000000       0.00000000       0.00000000       0.00000000      -2.04635978
Tc       0.00000000       0.00000000       0.88545455       0.00000000       0.00000000       2.04635978
2
Properties=species:S:1:pos:R:3:forces:R:3 energy=59.021773607154245 pbc="F F F"
Tc       0.00000000       0.00000000       0.00000000       0.00000000       0.00000000      -6.16155720
Tc       0.00000000       0.00000000       0.94424242       0.00000000       0.00000000       6.16155720
2
Properties=species:S:1:pos:R:3:forces:R:3 energy=58.0721439912586 pbc="F F F"
Tc       0.00000000       0.00000000       0.00000000       0.00000000       0.00000000     -28.69920349
Tc       0.00000000       0.00000000       1.00303030       0.00000000       0.00000000      28.69920349
2
Properties=species:S:1:pos:R:3:forces:R:3 energy=55.42151072718129 pbc="F F F"
Tc       0.00000000       0.00000000       0.00000000       0.00000000       0.00000000     -62.73312759
Tc       0.00000000       0.00000000       1.06181818       0.00000000       0.00000000      62.73312759
2
Properties=species:S:1:pos:R:3:forces:R:3 energy=50.63295376928396 pbc="F F F"
Tc       0.00000000       0.00000000       0.00000000       0.00000000       0.00000000     -99.96471405
Tc       0.00000000       0.00000000       1.12060606       0.00000000       0.00000000      99.96471405
2
Properties=species:S:1:pos:R:3:forces:R:3 energy=43.7855213946821 pbc="F F F"
Tc       0.00000000       0.00000000       0.00000000       0.00000000       0.00000000    -131.21525574
Tc       0.00000000       0.00000000       1.17939394       0.00000000       0.00000000     131.21525574
2
Properties=species:S:1:pos:R:3:forces:R:3 energy=35.48894732430287 pbc="F F F"
Tc       0.00000000       0.00000000       0.00000000       0.00000000       0.00000000    -148.18331909
Tc       0.00000000       0.00000000       1.23818182       0.00000000       0.00000000     148.18331909
2
Properties=species:S:1:pos:R:3:forces:R:3 energy=26.696791630039527 pbc="F F F"
Tc       0.00000000       0.00000000       0.00000000       0.00000000       0.00000000    -148.44020081
Tc       0.00000000       0.00000000       1.29696970       0.00000000       0.00000000     148.44020081
2
Properties=species:S:1:pos:R:3:forces:R:3 energy=18.254687048726336 pbc="F F F"
Tc       0.00000000       0.00000000       0.00000000       0.00000000       0.00000000    -137.49696350
Tc       0.00000000       0.00000000       1.35575758       0.00000000       0.00000000     137.49696350
2
Properties=species:S:1:pos:R:3:forces:R:3 energy=10.6415671744753 pbc="F F F"
Tc       0.00000000       0.00000000       0.00000000       0.00000000       0.00000000    -120.69387054
Tc       0.00000000       0.00000000       1.41454545       0.00000000       0.00000000     120.69387054
2
Properties=species:S:1:pos:R:3:forces:R:3 energy=4.161033525665802 pbc="F F F"
Tc       0.00000000       0.00000000       0.00000000       0.00000000       0.00000000     -98.97169495
Tc       0.00000000       0.00000000       1.47333333       0.00000000       0.00000000      98.97169495
2
Properties=species:S:1:pos:R:3:forces:R:3 energy=-0.9299937137444511 pbc="F F F"
Tc       0.00000000       0.00000000       0.00000000       0.00000000       0.00000000     -74.12620544
Tc       0.00000000       0.00000000       1.53212121       0.00000000       0.00000000      74.12620544
2
Properties=species:S:1:pos:R:3:forces:R:3 energy=-4.604811295428718 pbc="F F F"
Tc       0.00000000       0.00000000       0.00000000       0.00000000       0.00000000     -51.69449997
Tc       0.00000000       0.00000000       1.59090909       0.00000000       0.00000000      51.69449997
2
Properties=species:S:1:pos:R:3:forces:R:3 energy=-7.106030228475049 pbc="F F F"
Tc       0.00000000       0.00000000       0.00000000       0.00000000       0.00000000     -34.13902283
Tc       0.00000000       0.00000000       1.64969697       0.00000000       0.00000000      34.13902283
2
Properties=species:S:1:pos:R:3:forces:R:3 energy=-8.698801589097181 pbc="F F F"
Tc       0.00000000       0.00000000       0.00000000       0.00000000       0.00000000     -20.74142647
Tc       0.00000000       0.00000000       1.70848485       0.00000000       0.00000000      20.74142647
2
Properties=species:S:1:pos:R:3:forces:R:3 energy=-9.629889562003385 pbc="F F F"
Tc       0.00000000       0.00000000       0.00000000       0.00000000       0.00000000     -11.64428711
Tc       0.00000000       0.00000000       1.76727273       0.00000000       0.00000000      11.64428711
2
Properties=species:S:1:pos:R:3:forces:R:3 energy=-10.140776978572335 pbc="F F F"
Tc       0.00000000       0.00000000       0.00000000       0.00000000       0.00000000      -6.24076891
Tc       0.00000000       0.00000000       1.82606061       0.00000000       0.00000000       6.24076891
2
Properties=species:S:1:pos:R:3:forces:R:3 energy=-10.409313259935882 pbc="F F F"
Tc       0.00000000       0.00000000       0.00000000       0.00000000       0.00000000      -3.18142939
Tc       0.00000000       0.00000000       1.88484848       0.00000000       0.00000000       3.18142939
2
Properties=species:S:1:pos:R:3:forces:R:3 energy=-10.539410696253206 pbc="F F F"
Tc       0.00000000       0.00000000       0.00000000       0.00000000       0.00000000      -1.39039135
Tc       0.00000000       0.00000000       1.94363636       0.00000000       0.00000000       1.39039135
2
Properties=species:S:1:pos:R:3:forces:R:3 energy=-10.58443163005525 pbc="F F F"
Tc       0.00000000       0.00000000       0.00000000       0.00000000       0.00000000      -0.20203809
Tc       0.00000000       0.00000000       2.00242424       0.00000000       0.00000000       0.20203809
2
Properties=species:S:1:pos:R:3:forces:R:3 energy=-10.567204508586592 pbc="F F F"
Tc       0.00000000       0.00000000       0.00000000       0.00000000       0.00000000       0.77255881
Tc       0.00000000       0.00000000       2.06121212       0.00000000       0.00000000      -0.77255881
2
Properties=species:S:1:pos:R:3:forces:R:3 energy=-10.494363074073494 pbc="F F F"
Tc       0.00000000       0.00000000       0.00000000       0.00000000       0.00000000       1.70345056
Tc       0.00000000       0.00000000       2.12000000       0.00000000       0.00000000      -1.70345056
2
Properties=species:S:1:pos:R:3:forces:R:3 energy=-10.367060834320254 pbc="F F F"
Tc       0.00000000       0.00000000       0.00000000       0.00000000       0.00000000       2.62671137
Tc       0.00000000       0.00000000       2.17878788       0.00000000       0.00000000      -2.62671137
2
Properties=species:S:1:pos:R:3:forces:R:3 energy=-10.18557392879196 pbc="F F F"
Tc       0.00000000       0.00000000       0.00000000       0.00000000       0.00000000       3.54728007
Tc       0.00000000       0.00000000       2.23757576       0.00000000       0.00000000      -3.54728007
2
Properties=species:S:1:pos:R:3:forces:R:3 energy=-9.95019613096998 pbc="F F F"
Tc       0.00000000       0.00000000       0.00000000       0.00000000       0.00000000       4.45550632
Tc       0.00000000       0.00000000       2.29636364       0.00000000       0.00000000      -4.45550632
2
Properties=species:S:1:pos:R:3:forces:R:3 energy=-9.662971534561287 pbc="F F F"
Tc       0.00000000       0.00000000       0.00000000       0.00000000       0.00000000       5.29771376
Tc       0.00000000       0.00000000       2.35515152       0.00000000       0.00000000      -5.29771376
2
Properties=species:S:1:pos:R:3:forces:R:3 energy=-9.330646934825962 pbc="F F F"
Tc       0.00000000       0.00000000       0.00000000       0.00000000       0.00000000       5.96889210
Tc       0.00000000       0.00000000       2.41393939       0.00000000       0.00000000      -5.96889210
2
Properties=species:S:1:pos:R:3:forces:R:3 energy=-8.967131745530947 pbc="F F F"
Tc       0.00000000       0.00000000       0.00000000       0.00000000       0.00000000       6.33648443
Tc       0.00000000       0.00000000       2.47272727       0.00000000       0.00000000      -6.33648443
2
Properties=species:S:1:pos:R:3:forces:R:3 energy=-8.593925567652933 pbc="F F F"
Tc       0.00000000       0.00000000       0.00000000       0.00000000       0.00000000       6.28273582
Tc       0.00000000       0.00000000       2.53151515       0.00000000       0.00000000      -6.28273582
2
Properties=species:S:1:pos:R:3:forces:R:3 energy=-8.237889223719968 pbc="F F F"
Tc       0.00000000       0.00000000       0.00000000       0.00000000       0.00000000       5.74966955
Tc       0.00000000       0.00000000       2.59030303       0.00000000       0.00000000      -5.74966955
2
Properties=species:S:1:pos:R:3:forces:R:3 energy=-7.9267595556437485 pbc="F F F"
Tc       0.00000000       0.00000000       0.00000000       0.00000000       0.00000000       4.76769590
Tc       0.00000000       0.00000000       2.64909091       0.00000000       0.00000000      -4.76769590
2
Properties=species:S:1:pos:R:3:forces:R:3 energy=-7.683850529283729 pbc="F F F"
Tc       0.00000000       0.00000000       0.00000000       0.00000000       0.00000000       3.45474219
Tc       0.00000000       0.00000000       2.70787879       0.00000000       0.00000000      -3.45474219
2
Properties=species:S:1:pos:R:3:forces:R:3 energy=-7.523488577713413 pbc="F F F"
Tc       0.00000000       0.00000000       0.00000000       0.00000000       0.00000000       1.99413657
Tc       0.00000000       0.00000000       2.76666667       0.00000000       0.00000000      -1.99413657
2
Properties=species:S:1:pos:R:3:forces:R:3 energy=-7.447867421467303 pbc="F F F"
Tc       0.00000000       0.00000000       0.00000000       0.00000000       0.00000000       0.61116046
Tc       0.00000000       0.00000000       2.82545455       0.00000000       0.00000000      -0.61116046
2
Properties=species:S:1:pos:R:3:forces:R:3 energy=-7.445851621088595 pbc="F F F"
Tc       0.00000000       0.00000000       0.00000000       0.00000000       0.00000000      -0.48125976
Tc       0.00000000       0.00000000       2.88424242       0.00000000       0.00000000       0.48125976
2
Properties=species:S:1:pos:R:3:forces:R:3 energy=-7.496708385885781 pbc="F F F"
Tc       0.00000000       0.00000000       0.00000000       0.00000000       0.00000000      -1.18257451
Tc       0.00000000       0.00000000       2.94303030       0.00000000       0.00000000       1.18257451
2
Properties=species:S:1:pos:R:3:forces:R:3 energy=-7.577442573745513 pbc="F F F"
Tc       0.00000000       0.00000000       0.00000000       0.00000000       0.00000000      -1.50497317
Tc       0.00000000       0.00000000       3.00181818       0.00000000       0.00000000       1.50497317
2
Properties=species:S:1:pos:R:3:forces:R:3 energy=-7.66741191795957 pbc="F F F"
Tc       0.00000000       0.00000000       0.00000000       0.00000000       0.00000000      -1.50984037
Tc       0.00000000       0.00000000       3.06060606       0.00000000       0.00000000       1.50984037
2
Properties=species:S:1:pos:R:3:forces:R:3 energy=-7.750526661541268 pbc="F F F"
Tc       0.00000000       0.00000000       0.00000000       0.00000000       0.00000000      -1.28862107
Tc       0.00000000       0.00000000       3.11939394       0.00000000       0.00000000       1.28862107
2
Properties=species:S:1:pos:R:3:forces:R:3 energy=-7.816463672829986 pbc="F F F"
Tc       0.00000000       0.00000000       0.00000000       0.00000000       0.00000000      -0.94134319
Tc       0.00000000       0.00000000       3.17818182       0.00000000       0.00000000       0.94134319
2
Properties=species:S:1:pos:R:3:forces:R:3 energy=-7.860408987827161 pbc="F F F"
Tc       0.00000000       0.00000000       0.00000000       0.00000000       0.00000000      -0.55247277
Tc       0.00000000       0.00000000       3.23696970       0.00000000       0.00000000       0.55247277
2
Properties=species:S:1:pos:R:3:forces:R:3 energy=-7.881774093173094 pbc="F F F"
Tc       0.00000000       0.00000000       0.00000000       0.00000000       0.00000000      -0.18077917
Tc       0.00000000       0.00000000       3.29575758       0.00000000       0.00000000       0.18077917
2
Properties=species:S:1:pos:R:3:forces:R:3 energy=-7.882681895352892 pbc="F F F"
Tc       0.00000000       0.00000000       0.00000000       0.00000000       0.00000000       0.13962840
Tc       0.00000000       0.00000000       3.35454545       0.00000000       0.00000000      -0.13962840
2
Properties=species:S:1:pos:R:3:forces:R:3 energy=-7.866659300088806 pbc="F F F"
Tc       0.00000000       0.00000000       0.00000000       0.00000000       0.00000000       0.39404264
Tc       0.00000000       0.00000000       3.41333333       0.00000000       0.00000000      -0.39404264
2
Properties=species:S:1:pos:R:3:forces:R:3 energy=-7.837676819683265 pbc="F F F"
Tc       0.00000000       0.00000000       0.00000000       0.00000000       0.00000000       0.58109486
Tc       0.00000000       0.00000000       3.47212121       0.00000000       0.00000000      -0.58109486
2
Properties=species:S:1:pos:R:3:forces:R:3 energy=-7.799533626835474 pbc="F F F"
Tc       0.00000000       0.00000000       0.00000000       0.00000000       0.00000000       0.70717871
Tc       0.00000000       0.00000000       3.53090909       0.00000000       0.00000000      -0.70717871
2
Properties=species:S:1:pos:R:3:forces:R:3 energy=-7.755532010918851 pbc="F F F"
Tc       0.00000000       0.00000000       0.00000000       0.00000000       0.00000000       0.78212267
Tc       0.00000000       0.00000000       3.58969697       0.00000000       0.00000000      -0.78212267
2
Properties=species:S:1:pos:R:3:forces:R:3 energy=-7.7083690899327815 pbc="F F F"
Tc       0.00000000       0.00000000       0.00000000       0.00000000       0.00000000       0.81652212
Tc       0.00000000       0.00000000       3.64848485       0.00000000       0.00000000      -0.81652212
2
Properties=species:S:1:pos:R:3:forces:R:3 energy=-7.660124685169199 pbc="F F F"
Tc       0.00000000       0.00000000       0.00000000       0.00000000       0.00000000       0.82051730
Tc       0.00000000       0.00000000       3.70727273       0.00000000       0.00000000      -0.82051730
2
Properties=species:S:1:pos:R:3:forces:R:3 energy=-7.612311172038462 pbc="F F F"
Tc       0.00000000       0.00000000       0.00000000       0.00000000       0.00000000       0.80324334
Tc       0.00000000       0.00000000       3.76606061       0.00000000       0.00000000      -0.80324334
2
Properties=species:S:1:pos:R:3:forces:R:3 energy=-7.5659472821229174 pbc="F F F"
Tc       0.00000000       0.00000000       0.00000000       0.00000000       0.00000000       0.77240694
Tc       0.00000000       0.00000000       3.82484848       0.00000000       0.00000000      -0.77240694
2
Properties=species:S:1:pos:R:3:forces:R:3 energy=-7.521643341322788 pbc="F F F"
Tc       0.00000000       0.00000000       0.00000000       0.00000000       0.00000000       0.73393291
Tc       0.00000000       0.00000000       3.88363636       0.00000000       0.00000000      -0.73393291
2
Properties=species:S:1:pos:R:3:forces:R:3 energy=-7.4797223358092015 pbc="F F F"
Tc       0.00000000       0.00000000       0.00000000       0.00000000       0.00000000       0.69191915
Tc       0.00000000       0.00000000       3.94242424       0.00000000       0.00000000      -0.69191915
2
Properties=species:S:1:pos:R:3:forces:R:3 energy=-7.440310027911447 pbc="F F F"
Tc       0.00000000       0.00000000       0.00000000       0.00000000       0.00000000       0.64890677
Tc       0.00000000       0.00000000       4.00121212       0.00000000       0.00000000      -0.64890677
2
Properties=species:S:1:pos:R:3:forces:R:3 energy=-7.403417086149781 pbc="F F F"
Tc       0.00000000       0.00000000       0.00000000       0.00000000       0.00000000       0.60637283
Tc       0.00000000       0.00000000       4.06000000       0.00000000       0.00000000      -0.60637283
2
Properties=species:S:1:pos:R:3:forces:R:3 energy=-7.3689881234349945 pbc="F F F"
Tc       0.00000000       0.00000000       0.00000000       0.00000000       0.00000000       0.56521976
Tc       0.00000000       0.00000000       4.11878788       0.00000000       0.00000000      -0.56521976
2
Properties=species:S:1:pos:R:3:forces:R:3 energy=-7.336919823216066 pbc="F F F"
Tc       0.00000000       0.00000000       0.00000000       0.00000000       0.00000000       0.52614868
Tc       0.00000000       0.00000000       4.17757576       0.00000000       0.00000000      -0.52614868
2
Properties=species:S:1:pos:R:3:forces:R:3 energy=-7.307070279818352 pbc="F F F"
Tc       0.00000000       0.00000000       0.00000000       0.00000000       0.00000000       0.48989087
Tc       0.00000000       0.00000000       4.23636364       0.00000000       0.00000000      -0.48989087
2
Properties=species:S:1:pos:R:3:forces:R:3 energy=-7.279249932201941 pbc="F F F"
Tc       0.00000000       0.00000000       0.00000000       0.00000000       0.00000000       0.45722404
Tc       0.00000000       0.00000000       4.29515152       0.00000000       0.00000000      -0.45722404
2
Properties=species:S:1:pos:R:3:forces:R:3 energy=-7.253228043276888 pbc="F F F"
Tc       0.00000000       0.00000000       0.00000000       0.00000000       0.00000000       0.42884424
Tc       0.00000000       0.00000000       4.35393939       0.00000000       0.00000000      -0.42884424
2
Properties=species:S:1:pos:R:3:forces:R:3 energy=-7.228737233855966 pbc="F F F"
Tc       0.00000000       0.00000000       0.00000000       0.00000000       0.00000000       0.40512127
Tc       0.00000000       0.00000000       4.41272727       0.00000000       0.00000000      -0.40512127
2
Properties=species:S:1:pos:R:3:forces:R:3 energy=-7.205506804234937 pbc="F F F"
Tc       0.00000000       0.00000000       0.00000000       0.00000000       0.00000000       0.38586956
Tc       0.00000000       0.00000000       4.47151515       0.00000000       0.00000000      -0.38586956
2
Properties=species:S:1:pos:R:3:forces:R:3 energy=-7.183296629308485 pbc="F F F"
Tc       0.00000000       0.00000000       0.00000000       0.00000000       0.00000000       0.37024486
Tc       0.00000000       0.00000000       4.53030303       0.00000000       0.00000000      -0.37024486
2
Properties=species:S:1:pos:R:3:forces:R:3 energy=-7.161931509852541 pbc="F F F"
Tc       0.00000000       0.00000000       0.00000000       0.00000000       0.00000000       0.35683253
Tc       0.00000000       0.00000000       4.58909091       0.00000000       0.00000000      -0.35683253
2
Properties=species:S:1:pos:R:3:forces:R:3 energy=-7.141331843821708 pbc="F F F"
Tc       0.00000000       0.00000000       0.00000000       0.00000000       0.00000000       0.34394467
Tc       0.00000000       0.00000000       4.64787879       0.00000000       0.00000000      -0.34394467
2
Properties=species:S:1:pos:R:3:forces:R:3 energy=-7.1215134172729995 pbc="F F F"
Tc       0.00000000       0.00000000       0.00000000       0.00000000       0.00000000       0.32997692
Tc       0.00000000       0.00000000       4.70666667       0.00000000       0.00000000      -0.32997692
2
Properties=species:S:1:pos:R:3:forces:R:3 energy=-7.102578631227661 pbc="F F F"
Tc       0.00000000       0.00000000       0.00000000       0.00000000       0.00000000       0.31377554
Tc       0.00000000       0.00000000       4.76545455       0.00000000       0.00000000      -0.31377554
2
Properties=species:S:1:pos:R:3:forces:R:3 energy=-7.084674527329959 pbc="F F F"
Tc       0.00000000       0.00000000       0.00000000       0.00000000       0.00000000       0.29483777
Tc       0.00000000       0.00000000       4.82424242       0.00000000       0.00000000      -0.29483777
2
Properties=species:S:1:pos:R:3:forces:R:3 energy=-7.067964432707302 pbc="F F F"
Tc       0.00000000       0.00000000       0.00000000       0.00000000       0.00000000       0.27332821
Tc       0.00000000       0.00000000       4.88303030       0.00000000       0.00000000      -0.27332821
2
Properties=species:S:1:pos:R:3:forces:R:3 energy=-7.052576773667554 pbc="F F F"
Tc       0.00000000       0.00000000       0.00000000       0.00000000       0.00000000       0.24986896
Tc       0.00000000       0.00000000       4.94181818       0.00000000       0.00000000      -0.24986896
2
Properties=species:S:1:pos:R:3:forces:R:3 energy=-7.038606550560024 pbc="F F F"
Tc       0.00000000       0.00000000       0.00000000       0.00000000       0.00000000       0.22530268
Tc       0.00000000       0.00000000       5.00060606       0.00000000       0.00000000      -0.22530268
2
Properties=species:S:1:pos:R:3:forces:R:3 energy=-7.026091076101194 pbc="F F F"
Tc       0.00000000       0.00000000       0.00000000       0.00000000       0.00000000       0.20050490
Tc       0.00000000       0.00000000       5.05939394       0.00000000       0.00000000      -0.20050490
2
Properties=species:S:1:pos:R:3:forces:R:3 energy=-7.015013600002656 pbc="F F F"
Tc       0.00000000       0.00000000       0.00000000       0.00000000       0.00000000       0.17666176
Tc       0.00000000       0.00000000       5.11818182       0.00000000       0.00000000      -0.17666176
2
Properties=species:S:1:pos:R:3:forces:R:3 energy=-7.0052624118492846 pbc="F F F"
Tc       0.00000000       0.00000000       0.00000000       0.00000000       0.00000000       0.15581165
Tc       0.00000000       0.00000000       5.17696970       0.00000000       0.00000000      -0.15581165
2
Properties=species:S:1:pos:R:3:forces:R:3 energy=-6.996582842105182 pbc="F F F"
Tc       0.00000000       0.00000000       0.00000000       0.00000000       0.00000000       0.14060751
Tc       0.00000000       0.00000000       5.23575758       0.00000000       0.00000000      -0.14060751
2
Properties=species:S:1:pos:R:3:forces:R:3 energy=-6.988601419249823 pbc="F F F"
Tc       0.00000000       0.00000000       0.00000000       0.00000000       0.00000000       0.13183035
Tc       0.00000000       0.00000000       5.29454545       0.00000000       0.00000000      -0.13183035
2
Properties=species:S:1:pos:R:3:forces:R:3 energy=-6.981024999144839 pbc="F F F"
Tc       0.00000000       0.00000000       0.00000000       0.00000000       0.00000000       0.12591305
Tc       0.00000000       0.00000000       5.35333333       0.00000000       0.00000000      -0.12591305
2
Properties=species:S:1:pos:R:3:forces:R:3 energy=-6.973844791149106 pbc="F F F"
Tc       0.00000000       0.00000000       0.00000000       0.00000000       0.00000000       0.11775830
Tc       0.00000000       0.00000000       5.41212121       0.00000000       0.00000000      -0.11775830
2
Properties=species:S:1:pos:R:3:forces:R:3 energy=-6.967235408025382 pbc="F F F"
Tc       0.00000000       0.00000000       0.00000000       0.00000000       0.00000000       0.10697356
Tc       0.00000000       0.00000000       5.47090909       0.00000000       0.00000000      -0.10697356
2
Properties=species:S:1:pos:R:3:forces:R:3 energy=-6.961209254035275 pbc="F F F"
Tc       0.00000000       0.00000000       0.00000000       0.00000000       0.00000000       0.09911985
Tc       0.00000000       0.00000000       5.52969697       0.00000000       0.00000000      -0.09911985
2
Properties=species:S:1:pos:R:3:forces:R:3 energy=-6.955400113729326 pbc="F F F"
Tc       0.00000000       0.00000000       0.00000000       0.00000000       0.00000000       0.10025164
Tc       0.00000000       0.00000000       5.58848485       0.00000000       0.00000000      -0.10025164
2
Properties=species:S:1:pos:R:3:forces:R:3 energy=-6.949266850112585 pbc="F F F"
Tc       0.00000000       0.00000000       0.00000000       0.00000000       0.00000000       0.10911056
Tc       0.00000000       0.00000000       5.64727273       0.00000000       0.00000000      -0.10911056
2
Properties=species:S:1:pos:R:3:forces:R:3 energy=-6.942631777554884 pbc="F F F"
Tc       0.00000000       0.00000000       0.00000000       0.00000000       0.00000000       0.11487304
Tc       0.00000000       0.00000000       5.70606061       0.00000000       0.00000000      -0.11487304
2
Properties=species:S:1:pos:R:3:forces:R:3 energy=-6.936041787494618 pbc="F F F"
Tc       0.00000000       0.00000000       0.00000000       0.00000000       0.00000000       0.10605815
Tc       0.00000000       0.00000000       5.76484848       0.00000000       0.00000000      -0.10605815
2
Properties=species:S:1:pos:R:3:forces:R:3 energy=-6.930468424201882 pbc="F F F"
Tc       0.00000000       0.00000000       0.00000000       0.00000000       0.00000000       0.08165709
Tc       0.00000000       0.00000000       5.82363636       0.00000000       0.00000000      -0.08165709
2
Properties=species:S:1:pos:R:3:forces:R:3 energy=-6.926569297282541 pbc="F F F"
Tc       0.00000000       0.00000000       0.00000000       0.00000000       0.00000000       0.05148984
Tc       0.00000000       0.00000000       5.88242424       0.00000000       0.00000000      -0.05148984
2
Properties=species:S:1:pos:R:3:forces:R:3 energy=-6.924290998286602 pbc="F F F"
Tc       0.00000000       0.00000000       0.00000000       0.00000000       0.00000000       0.02770164
Tc       0.00000000       0.00000000       5.94121212       0.00000000       0.00000000      -0.02770164
2
Properties=species:S:1:pos:R:3:forces:R:3 energy=-6.923024999532464 pbc="F F F"
Tc       0.00000000       0.00000000       0.00000000       0.00000000       0.00000000       0.01818999
Tc       0.00000000       0.00000000       6.00000000       0.00000000       0.00000000      -0.01818999
