2
Properties=species:S:1:pos:R:3:forces:R:3 energy=2850.7659859773826 pbc="F F F"
V        0.00000000       0.00000000       0.00000000       0.00000000       0.00000000  -43361.05468750
V        0.00000000       0.00000000       0.18000000       0.00000000       0.00000000   43361.05468750
2
Properties=species:S:1:pos:R:3:forces:R:3 energy=1263.6656441805078 pbc="F F F"
V        0.00000000       0.00000000       0.00000000       0.00000000       0.00000000  -16002.12792969
V        0.00000000       0.00000000       0.23878788       0.00000000       0.00000000   16002.12792969
2
Properties=species:S:1:pos:R:3:forces:R:3 energy=632.7600045320702 pbc="F F F"
V        0.00000000       0.00000000       0.00000000       0.00000000       0.00000000   -6937.68310547
V        0.00000000       0.00000000       0.29757576       0.00000000       0.00000000    6937.68310547
2
Properties=species:S:1:pos:R:3:forces:R:3 energy=345.47512294660896 pbc="F F F"
V        0.00000000       0.00000000       0.00000000       0.00000000       0.00000000   -3339.22143555
V        0.00000000       0.00000000       0.35636364       0.00000000       0.00000000    3339.22143555
2
Properties=species:S:1:pos:R:3:forces:R:3 energy=202.5180459202418 pbc="F F F"
V        0.00000000       0.00000000       0.00000000       0.00000000       0.00000000   -1724.37292480
V        0.00000000       0.00000000       0.41515152       0.00000000       0.00000000    1724.37292480
2
Properties=species:S:1:pos:R:3:forces:R:3 energy=126.9403024089753 pbc="F F F"
V        0.00000000       0.00000000       0.00000000       0.00000000       0.00000000    -935.64404297
V        0.00000000       0.00000000       0.47393939       0.00000000       0.00000000     935.64404297
2
Properties=species:S:1:pos:R:3:forces:R:3 energy=85.22432953392725 pbc="F F F"
V        0.00000000       0.00000000       0.00000000       0.00000000       0.00000000    -526.17736816
V        0.00000000       0.00000000       0.53272727       0.00000000       0.00000000     526.17736816
2
Properties=species:S:1:pos:R:3:forces:R:3 energy=61.48197804629434 pbc="F F F"
V        0.00000000       0.00000000       0.00000000       0.00000000       0.00000000    -303.15014648
V        0.00000000       0.00000000       0.59151515       0.00000000       0.00000000     303.15014648
2
Properties=species:S:1:pos:R:3:forces:R:3 energy=47.72528714331816 pbc="F F F"
V        0.00000000       0.00000000       0.00000000       0.00000000       0.00000000    -176.25776672
V        0.00000000       0.00000000       0.65030303       0.00000000       0.00000000     176.25776672
2
Properties=species:S:1:pos:R:3:forces:R:3 energy=39.75142176099784 pbc="F F F"
V        0.00000000       0.00000000       0.00000000       0.00000000       0.00000000    -101.52053070
V        0.00000000       0.00000000       0.70909091       0.00000000       0.00000000     101.52053070
2
Properties=species:S:1:pos:R:3:forces:R:3 energy=35.16887953163358 pbc="F F F"
V        0.00000000       0.00000000       0.00000000       0.00000000       0.00000000     -58.75399017
V        0.00000000       0.00000000       0.76787879       0.00000000       0.00000000      58.75399017
2
Properties=species:S:1:pos:R:3:forces:R:3 energy=32.40878612143708 pbc="F F F"
V        0.00000000       0.00000000       0.00000000       0.00000000       0.00000000     -38.22399521
V        0.00000000       0.00000000       0.82666667       0.00000000       0.00000000      38.22399521
2
Properties=species:S:1:pos:R:3:forces:R:3 energy=30.37506268940592 pbc="F F F"
V        0.00000000       0.00000000       0.00000000       0.00000000       0.00000000     -33.05761337
V        0.00000000       0.00000000       0.88545455       0.00000000       0.00000000      33.05761337
2
Properties=species:S:1:pos:R:3:forces:R:3 energy=28.31723625742865 pbc="F F F"
V        0.00000000       0.00000000       0.00000000       0.00000000       0.00000000     -38.38975906
V        0.00000000       0.00000000       0.94424242       0.00000000       0.00000000      38.38975906
2
Properties=species:S:1:pos:R:3:forces:R:3 energy=25.72321618053575 pbc="F F F"
V        0.00000000       0.00000000       0.00000000       0.00000000       0.00000000     -50.76966476
V        0.00000000       0.00000000       1.00303030       0.00000000       0.00000000      50.76966476
2
Properties=species:S:1:pos:R:3:forces:R:3 energy=22.276754582020185 pbc="F F F"
V        0.00000000       0.00000000       0.00000000       0.00000000       0.00000000     -66.75139618
V        0.00000000       0.00000000       1.06181818       0.00000000       0.00000000      66.75139618
2
Properties=species:S:1:pos:R:3:forces:R:3 energy=17.884019528254118 pbc="F F F"
V        0.00000000       0.00000000       0.00000000       0.00000000       0.00000000     -82.27331543
V        0.00000000       0.00000000       1.12060606       0.00000000       0.00000000      82.27331543
2
Properties=species:S:1:pos:R:3:forces:R:3 energy=12.692452959278953 pbc="F F F"
V        0.00000000       0.00000000       0.00000000       0.00000000       0.00000000     -93.23123932
V        0.00000000       0.00000000       1.17939394       0.00000000       0.00000000      93.23123932
2
Properties=species:S:1:pos:R:3:forces:R:3 energy=7.102426051141513 pbc="F F F"
V        0.00000000       0.00000000       0.00000000       0.00000000       0.00000000     -94.97164917
V        0.00000000       0.00000000       1.23818182       0.00000000       0.00000000      94.97164917
2
Properties=species:S:1:pos:R:3:forces:R:3 energy=1.7943674354985313 pbc="F F F"
V        0.00000000       0.00000000       0.00000000       0.00000000       0.00000000     -83.30739594
V        0.00000000       0.00000000       1.29696970       0.00000000       0.00000000      83.30739594
2
Properties=species:S:1:pos:R:3:forces:R:3 energy=-2.4936532139640604 pbc="F F F"
V        0.00000000       0.00000000       0.00000000       0.00000000       0.00000000     -61.83504868
V        0.00000000       0.00000000       1.35575758       0.00000000       0.00000000      61.83504868
2
Properties=species:S:1:pos:R:3:forces:R:3 energy=-5.497947174554617 pbc="F F F"
V        0.00000000       0.00000000       0.00000000       0.00000000       0.00000000     -41.16576767
V        0.00000000       0.00000000       1.41454545       0.00000000       0.00000000      41.16576767
2
Properties=species:S:1:pos:R:3:forces:R:3 energy=-7.441466609407764 pbc="F F F"
V        0.00000000       0.00000000       0.00000000       0.00000000       0.00000000     -25.82263374
V        0.00000000       0.00000000       1.47333333       0.00000000       0.00000000      25.82263374
2
Properties=species:S:1:pos:R:3:forces:R:3 energy=-8.624244885118825 pbc="F F F"
V        0.00000000       0.00000000       0.00000000       0.00000000       0.00000000     -15.09735107
V        0.00000000       0.00000000       1.53212121       0.00000000       0.00000000      15.09735107
2
Properties=species:S:1:pos:R:3:forces:R:3 energy=-9.287531811751574 pbc="F F F"
V        0.00000000       0.00000000       0.00000000       0.00000000       0.00000000      -7.98877382
V        0.00000000       0.00000000       1.59090909       0.00000000       0.00000000       7.98877382
2
Properties=species:S:1:pos:R:3:forces:R:3 energy=-9.614712476363884 pbc="F F F"
V        0.00000000       0.00000000       0.00000000       0.00000000       0.00000000      -3.49784780
V        0.00000000       0.00000000       1.64969697       0.00000000       0.00000000       3.49784780
2
Properties=species:S:1:pos:R:3:forces:R:3 energy=-9.732742567203426 pbc="F F F"
V        0.00000000       0.00000000       0.00000000       0.00000000       0.00000000      -0.74674344
V        0.00000000       0.00000000       1.70848485       0.00000000       0.00000000       0.74674344
2
Properties=species:S:1:pos:R:3:forces:R:3 energy=-9.723631108321278 pbc="F F F"
V        0.00000000       0.00000000       0.00000000       0.00000000       0.00000000       0.91929334
V        0.00000000       0.00000000       1.76727273       0.00000000       0.00000000      -0.91929334
2
Properties=species:S:1:pos:R:3:forces:R:3 energy=-9.637220946861392 pbc="F F F"
V        0.00000000       0.00000000       0.00000000       0.00000000       0.00000000       1.93656623
V        0.00000000       0.00000000       1.82606061       0.00000000       0.00000000      -1.93656623
2
Properties=species:S:1:pos:R:3:forces:R:3 energy=-9.504206974679528 pbc="F F F"
V        0.00000000       0.00000000       0.00000000       0.00000000       0.00000000       2.52717447
V        0.00000000       0.00000000       1.88484848       0.00000000       0.00000000      -2.52717447
2
Properties=species:S:1:pos:R:3:forces:R:3 energy=-9.346780058718432 pbc="F F F"
V        0.00000000       0.00000000       0.00000000       0.00000000       0.00000000       2.77510428
V        0.00000000       0.00000000       1.94363636       0.00000000       0.00000000      -2.77510428
2
Properties=species:S:1:pos:R:3:forces:R:3 energy=-9.183784454690155 pbc="F F F"
V        0.00000000       0.00000000       0.00000000       0.00000000       0.00000000       2.72456074
V        0.00000000       0.00000000       2.00242424       0.00000000       0.00000000      -2.72456074
2
Properties=species:S:1:pos:R:3:forces:R:3 energy=-9.031147020547209 pbc="F F F"
V        0.00000000       0.00000000       0.00000000       0.00000000       0.00000000       2.43431950
V        0.00000000       0.00000000       2.06121212       0.00000000       0.00000000      -2.43431950
2
Properties=species:S:1:pos:R:3:forces:R:3 energy=-8.90078850355986 pbc="F F F"
V        0.00000000       0.00000000       0.00000000       0.00000000       0.00000000       1.97994995
V        0.00000000       0.00000000       2.12000000       0.00000000       0.00000000      -1.97994995
2
Properties=species:S:1:pos:R:3:forces:R:3 energy=-8.799952910547026 pbc="F F F"
V        0.00000000       0.00000000       0.00000000       0.00000000       0.00000000       1.44397616
V        0.00000000       0.00000000       2.17878788       0.00000000       0.00000000      -1.44397616
2
Properties=species:S:1:pos:R:3:forces:R:3 energy=-8.730971100704378 pbc="F F F"
V        0.00000000       0.00000000       0.00000000       0.00000000       0.00000000       0.90971965
V        0.00000000       0.00000000       2.23757576       0.00000000       0.00000000      -0.90971965
2
Properties=species:S:1:pos:R:3:forces:R:3 energy=-8.69152440455752 pbc="F F F"
V        0.00000000       0.00000000       0.00000000       0.00000000       0.00000000       0.44951600
V        0.00000000       0.00000000       2.29636364       0.00000000       0.00000000      -0.44951600
2
Properties=species:S:1:pos:R:3:forces:R:3 energy=-8.675695907888699 pbc="F F F"
V        0.00000000       0.00000000       0.00000000       0.00000000       0.00000000       0.11200481
V        0.00000000       0.00000000       2.35515152       0.00000000       0.00000000      -0.11200481
2
Properties=species:S:1:pos:R:3:forces:R:3 energy=-8.675527268102892 pbc="F F F"
V        0.00000000       0.00000000       0.00000000       0.00000000       0.00000000      -0.08196425
V        0.00000000       0.00000000       2.41393939       0.00000000       0.00000000       0.08196425
2
Properties=species:S:1:pos:R:3:forces:R:3 energy=-8.682586400510612 pbc="F F F"
V        0.00000000       0.00000000       0.00000000       0.00000000       0.00000000      -0.13643983
V        0.00000000       0.00000000       2.47272727       0.00000000       0.00000000       0.13643983
2
Properties=species:S:1:pos:R:3:forces:R:3 energy=-8.689300226988601 pbc="F F F"
V        0.00000000       0.00000000       0.00000000       0.00000000       0.00000000      -0.07570764
V        0.00000000       0.00000000       2.53151515       0.00000000       0.00000000       0.07570764
2
Properties=species:S:1:pos:R:3:forces:R:3 energy=-8.689997816816126 pbc="F F F"
V        0.00000000       0.00000000       0.00000000       0.00000000       0.00000000       0.06079038
V        0.00000000       0.00000000       2.59030303       0.00000000       0.00000000      -0.06079038
2
Properties=species:S:1:pos:R:3:forces:R:3 energy=-8.681604849219717 pbc="F F F"
V        0.00000000       0.00000000       0.00000000       0.00000000       0.00000000       0.22534384
V        0.00000000       0.00000000       2.64909091       0.00000000       0.00000000      -0.22534384
2
Properties=species:S:1:pos:R:3:forces:R:3 energy=-8.663860608711989 pbc="F F F"
V        0.00000000       0.00000000       0.00000000       0.00000000       0.00000000       0.37209097
V        0.00000000       0.00000000       2.70787879       0.00000000       0.00000000      -0.37209097
2
Properties=species:S:1:pos:R:3:forces:R:3 energy=-8.638829875529456 pbc="F F F"
V        0.00000000       0.00000000       0.00000000       0.00000000       0.00000000       0.47011176
V        0.00000000       0.00000000       2.76666667       0.00000000       0.00000000      -0.47011176
2
Properties=species:S:1:pos:R:3:forces:R:3 energy=-8.609615689104274 pbc="F F F"
V        0.00000000       0.00000000       0.00000000       0.00000000       0.00000000       0.51680821
V        0.00000000       0.00000000       2.82545455       0.00000000       0.00000000      -0.51680821
2
Properties=species:S:1:pos:R:3:forces:R:3 energy=-8.57851699572139 pbc="F F F"
V        0.00000000       0.00000000       0.00000000       0.00000000       0.00000000       0.54063880
V        0.00000000       0.00000000       2.88424242       0.00000000       0.00000000      -0.54063880
2
Properties=species:S:1:pos:R:3:forces:R:3 energy=-8.545855391131916 pbc="F F F"
V        0.00000000       0.00000000       0.00000000       0.00000000       0.00000000       0.57291752
V        0.00000000       0.00000000       2.94303030       0.00000000       0.00000000      -0.57291752
2
Properties=species:S:1:pos:R:3:forces:R:3 energy=-8.511032305178778 pbc="F F F"
V        0.00000000       0.00000000       0.00000000       0.00000000       0.00000000       0.61093307
V        0.00000000       0.00000000       3.00181818       0.00000000       0.00000000      -0.61093307
2
Properties=species:S:1:pos:R:3:forces:R:3 energy=-8.474292178719589 pbc="F F F"
V        0.00000000       0.00000000       0.00000000       0.00000000       0.00000000       0.63617647
V        0.00000000       0.00000000       3.06060606       0.00000000       0.00000000      -0.63617647
2
Properties=species:S:1:pos:R:3:forces:R:3 energy=-8.436494521053035 pbc="F F F"
V        0.00000000       0.00000000       0.00000000       0.00000000       0.00000000       0.64842159
V        0.00000000       0.00000000       3.11939394       0.00000000       0.00000000      -0.64842159
2
Properties=species:S:1:pos:R:3:forces:R:3 energy=-8.398101938761139 pbc="F F F"
V        0.00000000       0.00000000       0.00000000       0.00000000       0.00000000       0.65793967
V        0.00000000       0.00000000       3.17818182       0.00000000       0.00000000      -0.65793967
2
Properties=species:S:1:pos:R:3:forces:R:3 energy=-8.359087625510993 pbc="F F F"
V        0.00000000       0.00000000       0.00000000       0.00000000       0.00000000       0.66972762
V        0.00000000       0.00000000       3.23696970       0.00000000       0.00000000      -0.66972762
2
Properties=species:S:1:pos:R:3:forces:R:3 energy=-8.31933632190799 pbc="F F F"
V        0.00000000       0.00000000       0.00000000       0.00000000       0.00000000       0.68261415
V        0.00000000       0.00000000       3.29575758       0.00000000       0.00000000      -0.68261415
2
Properties=species:S:1:pos:R:3:forces:R:3 energy=-8.278858308217545 pbc="F F F"
V        0.00000000       0.00000000       0.00000000       0.00000000       0.00000000       0.69403994
V        0.00000000       0.00000000       3.35454545       0.00000000       0.00000000      -0.69403994
2
Properties=species:S:1:pos:R:3:forces:R:3 energy=-8.237789179754234 pbc="F F F"
V        0.00000000       0.00000000       0.00000000       0.00000000       0.00000000       0.70266968
V        0.00000000       0.00000000       3.41333333       0.00000000       0.00000000      -0.70266968
2
Properties=species:S:1:pos:R:3:forces:R:3 energy=-8.196302045110182 pbc="F F F"
V        0.00000000       0.00000000       0.00000000       0.00000000       0.00000000       0.70822710
V        0.00000000       0.00000000       3.47212121       0.00000000       0.00000000      -0.70822710
2
Properties=species:S:1:pos:R:3:forces:R:3 energy=-8.154583903806806 pbc="F F F"
V        0.00000000       0.00000000       0.00000000       0.00000000       0.00000000       0.71048486
V        0.00000000       0.00000000       3.53090909       0.00000000       0.00000000      -0.71048486
2
Properties=species:S:1:pos:R:3:forces:R:3 energy=-8.112843629846033 pbc="F F F"
V        0.00000000       0.00000000       0.00000000       0.00000000       0.00000000       0.70878589
V        0.00000000       0.00000000       3.58969697       0.00000000       0.00000000      -0.70878589
2
Properties=species:S:1:pos:R:3:forces:R:3 energy=-8.071342772728578 pbc="F F F"
V        0.00000000       0.00000000       0.00000000       0.00000000       0.00000000       0.70223761
V        0.00000000       0.00000000       3.64848485       0.00000000       0.00000000      -0.70223761
2
Properties=species:S:1:pos:R:3:forces:R:3 energy=-8.030387148455464 pbc="F F F"
V        0.00000000       0.00000000       0.00000000       0.00000000       0.00000000       0.69011766
V        0.00000000       0.00000000       3.70727273       0.00000000       0.00000000      -0.69011766
2
Properties=species:S:1:pos:R:3:forces:R:3 energy=-7.990316686563525 pbc="F F F"
V        0.00000000       0.00000000       0.00000000       0.00000000       0.00000000       0.67211819
V        0.00000000       0.00000000       3.76606061       0.00000000       0.00000000      -0.67211819
2
Properties=species:S:1:pos:R:3:forces:R:3 energy=-7.951474562423016 pbc="F F F"
V        0.00000000       0.00000000       0.00000000       0.00000000       0.00000000       0.64839864
V        0.00000000       0.00000000       3.82484848       0.00000000       0.00000000      -0.64839864
2
Properties=species:S:1:pos:R:3:forces:R:3 energy=-7.914181904197448 pbc="F F F"
V        0.00000000       0.00000000       0.00000000       0.00000000       0.00000000       0.61952931
V        0.00000000       0.00000000       3.88363636       0.00000000       0.00000000      -0.61952931
2
Properties=species:S:1:pos:R:3:forces:R:3 energy=-7.8787162798145145 pbc="F F F"
V        0.00000000       0.00000000       0.00000000       0.00000000       0.00000000       0.58642042
V        0.00000000       0.00000000       3.94242424       0.00000000       0.00000000      -0.58642042
2
Properties=species:S:1:pos:R:3:forces:R:3 energy=-7.845294185375928 pbc="F F F"
V        0.00000000       0.00000000       0.00000000       0.00000000       0.00000000       0.55022156
V        0.00000000       0.00000000       4.00121212       0.00000000       0.00000000      -0.55022156
2
Properties=species:S:1:pos:R:3:forces:R:3 energy=-7.814059805470079 pbc="F F F"
V        0.00000000       0.00000000       0.00000000       0.00000000       0.00000000       0.51218766
V        0.00000000       0.00000000       4.06000000       0.00000000       0.00000000      -0.51218766
2
Properties=species:S:1:pos:R:3:forces:R:3 energy=-7.785085819462699 pbc="F F F"
V        0.00000000       0.00000000       0.00000000       0.00000000       0.00000000       0.47351748
V        0.00000000       0.00000000       4.11878788       0.00000000       0.00000000      -0.47351748
2
Properties=species:S:1:pos:R:3:forces:R:3 energy=-7.758378000469874 pbc="F F F"
V        0.00000000       0.00000000       0.00000000       0.00000000       0.00000000       0.43521002
V        0.00000000       0.00000000       4.17757576       0.00000000       0.00000000      -0.43521002
2
Properties=species:S:1:pos:R:3:forces:R:3 energy=-7.73389335884881 pbc="F F F"
V        0.00000000       0.00000000       0.00000000       0.00000000       0.00000000       0.39799371
V        0.00000000       0.00000000       4.23636364       0.00000000       0.00000000      -0.39799371
2
Properties=species:S:1:pos:R:3:forces:R:3 energy=-7.711552719025814 pbc="F F F"
V        0.00000000       0.00000000       0.00000000       0.00000000       0.00000000       0.36233428
V        0.00000000       0.00000000       4.29515152       0.00000000       0.00000000      -0.36233428
2
Properties=species:S:1:pos:R:3:forces:R:3 energy=-7.691255324050158 pbc="F F F"
V        0.00000000       0.00000000       0.00000000       0.00000000       0.00000000       0.32854131
V        0.00000000       0.00000000       4.35393939       0.00000000       0.00000000      -0.32854131
2
Properties=species:S:1:pos:R:3:forces:R:3 energy=-7.672882816681938 pbc="F F F"
V        0.00000000       0.00000000       0.00000000       0.00000000       0.00000000       0.29688722
V        0.00000000       0.00000000       4.41272727       0.00000000       0.00000000      -0.29688722
2
Properties=species:S:1:pos:R:3:forces:R:3 energy=-7.65629939144753 pbc="F F F"
V        0.00000000       0.00000000       0.00000000       0.00000000       0.00000000       0.26773992
V        0.00000000       0.00000000       4.47151515       0.00000000       0.00000000      -0.26773992
2
Properties=species:S:1:pos:R:3:forces:R:3 energy=-7.641343645722235 pbc="F F F"
V        0.00000000       0.00000000       0.00000000       0.00000000       0.00000000       0.24160814
V        0.00000000       0.00000000       4.53030303       0.00000000       0.00000000      -0.24160814
2
Properties=species:S:1:pos:R:3:forces:R:3 energy=-7.627821414501608 pbc="F F F"
V        0.00000000       0.00000000       0.00000000       0.00000000       0.00000000       0.21908617
V        0.00000000       0.00000000       4.58909091       0.00000000       0.00000000      -0.21908617
2
Properties=species:S:1:pos:R:3:forces:R:3 energy=-7.615503552606261 pbc="F F F"
V        0.00000000       0.00000000       0.00000000       0.00000000       0.00000000       0.20071052
V        0.00000000       0.00000000       4.64787879       0.00000000       0.00000000      -0.20071052
2
Properties=species:S:1:pos:R:3:forces:R:3 energy=-7.604135713843345 pbc="F F F"
V        0.00000000       0.00000000       0.00000000       0.00000000       0.00000000       0.18675326
V        0.00000000       0.00000000       4.70666667       0.00000000       0.00000000      -0.18675326
2
Properties=species:S:1:pos:R:3:forces:R:3 energy=-7.59346209149415 pbc="F F F"
V        0.00000000       0.00000000       0.00000000       0.00000000       0.00000000       0.17703858
V        0.00000000       0.00000000       4.76545455       0.00000000       0.00000000      -0.17703858
2
Properties=species:S:1:pos:R:3:forces:R:3 energy=-7.583250538628027 pbc="F F F"
V        0.00000000       0.00000000       0.00000000       0.00000000       0.00000000       0.17084943
V        0.00000000       0.00000000       4.82424242       0.00000000       0.00000000      -0.17084943
2
Properties=species:S:1:pos:R:3:forces:R:3 energy=-7.573329094494244 pbc="F F F"
V        0.00000000       0.00000000       0.00000000       0.00000000       0.00000000       0.16697569
V        0.00000000       0.00000000       4.88303030       0.00000000       0.00000000      -0.16697569
2
Properties=species:S:1:pos:R:3:forces:R:3 energy=-7.563602566116564 pbc="F F F"
V        0.00000000       0.00000000       0.00000000       0.00000000       0.00000000       0.16391876
V        0.00000000       0.00000000       4.94181818       0.00000000       0.00000000      -0.16391876
2
Properties=species:S:1:pos:R:3:forces:R:3 energy=-7.554068210066495 pbc="F F F"
V        0.00000000       0.00000000       0.00000000       0.00000000       0.00000000       0.16024782
V        0.00000000       0.00000000       5.00060606       0.00000000       0.00000000      -0.16024782
2
Properties=species:S:1:pos:R:3:forces:R:3 energy=-7.544790052948832 pbc="F F F"
V        0.00000000       0.00000000       0.00000000       0.00000000       0.00000000       0.15513170
V        0.00000000       0.00000000       5.05939394       0.00000000       0.00000000      -0.15513170
2
Properties=species:S:1:pos:R:3:forces:R:3 energy=-7.535849574433742 pbc="F F F"
V        0.00000000       0.00000000       0.00000000       0.00000000       0.00000000       0.14900093
V        0.00000000       0.00000000       5.11818182       0.00000000       0.00000000      -0.14900093
2
Properties=species:S:1:pos:R:3:forces:R:3 energy=-7.527252380222293 pbc="F F F"
V        0.00000000       0.00000000       0.00000000       0.00000000       0.00000000       0.14387430
V        0.00000000       0.00000000       5.17696970       0.00000000       0.00000000      -0.14387430
2
Properties=species:S:1:pos:R:3:forces:R:3 energy=-7.518864858732135 pbc="F F F"
V        0.00000000       0.00000000       0.00000000       0.00000000       0.00000000       0.14216599
V        0.00000000       0.00000000       5.23575758       0.00000000       0.00000000      -0.14216599
2
Properties=species:S:1:pos:R:3:forces:R:3 energy=-7.510470848691605 pbc="F F F"
V        0.00000000       0.00000000       0.00000000       0.00000000       0.00000000       0.14369310
V        0.00000000       0.00000000       5.29454545       0.00000000       0.00000000      -0.14369310
2
Properties=species:S:1:pos:R:3:forces:R:3 energy=-7.501987852280826 pbc="F F F"
V        0.00000000       0.00000000       0.00000000       0.00000000       0.00000000       0.14429006
V        0.00000000       0.00000000       5.35333333       0.00000000       0.00000000      -0.14429006
2
Properties=species:S:1:pos:R:3:forces:R:3 energy=-7.4936101021182795 pbc="F F F"
V        0.00000000       0.00000000       0.00000000       0.00000000       0.00000000       0.13978837
V        0.00000000       0.00000000       5.41212121       0.00000000       0.00000000      -0.13978837
2
Properties=species:S:1:pos:R:3:forces:R:3 energy=-7.485633126368276 pbc="F F F"
V        0.00000000       0.00000000       0.00000000       0.00000000       0.00000000       0.13134046
V        0.00000000       0.00000000       5.47090909       0.00000000       0.00000000      -0.13134046
2
Properties=species:S:1:pos:R:3:forces:R:3 energy=-7.478116799100325 pbc="F F F"
V        0.00000000       0.00000000       0.00000000       0.00000000       0.00000000       0.12543951
V        0.00000000       0.00000000       5.52969697       0.00000000       0.00000000      -0.12543951
2
Properties=species:S:1:pos:R:3:forces:R:3 energy=-7.470701802332731 pbc="F F F"
V        0.00000000       0.00000000       0.00000000       0.00000000       0.00000000       0.12860370
V        0.00000000       0.00000000       5.58848485       0.00000000       0.00000000      -0.12860370
2
Properties=species:S:1:pos:R:3:forces:R:3 energy=-7.462832849179083 pbc="F F F"
V        0.00000000       0.00000000       0.00000000       0.00000000       0.00000000       0.13990000
V        0.00000000       0.00000000       5.64727273       0.00000000       0.00000000      -0.13990000
2
Properties=species:S:1:pos:R:3:forces:R:3 energy=-7.4543228772410695 pbc="F F F"
V        0.00000000       0.00000000       0.00000000       0.00000000       0.00000000       0.14757986
V        0.00000000       0.00000000       5.70606061       0.00000000       0.00000000      -0.14757986
2
Properties=species:S:1:pos:R:3:forces:R:3 energy=-7.44582759503164 pbc="F F F"
V        0.00000000       0.00000000       0.00000000       0.00000000       0.00000000       0.13716047
V        0.00000000       0.00000000       5.76484848       0.00000000       0.00000000      -0.13716047
2
Properties=species:S:1:pos:R:3:forces:R:3 energy=-7.438614265054531 pbc="F F F"
V        0.00000000       0.00000000       0.00000000       0.00000000       0.00000000       0.10549492
V        0.00000000       0.00000000       5.82363636       0.00000000       0.00000000      -0.10549492
2
Properties=species:S:1:pos:R:3:forces:R:3 energy=-7.4336266498956824 pbc="F F F"
V        0.00000000       0.00000000       0.00000000       0.00000000       0.00000000       0.06467927
V        0.00000000       0.00000000       5.88242424       0.00000000       0.00000000      -0.06467927
2
Properties=species:S:1:pos:R:3:forces:R:3 energy=-7.430852372859374 pbc="F F F"
V        0.00000000       0.00000000       0.00000000       0.00000000       0.00000000       0.03195702
V        0.00000000       0.00000000       5.94121212       0.00000000       0.00000000      -0.03195702
2
Properties=species:S:1:pos:R:3:forces:R:3 energy=-7.429470718480337 pbc="F F F"
V        0.00000000       0.00000000       0.00000000       0.00000000       0.00000000       0.01901128
V        0.00000000       0.00000000       6.00000000       0.00000000       0.00000000      -0.01901128
