2
Properties=species:S:1:pos:R:3:forces:R:3 energy=18943.012540535605 pbc="F F F"
Ac       0.00000000       0.00000000       0.00000000       0.00000000       0.00000000 -340208.75000000
Ac       0.00000000       0.00000000       0.18000000       0.00000000       0.00000000  340208.75000000
2
Properties=species:S:1:pos:R:3:forces:R:3 energy=7159.306974129356 pbc="F F F"
Ac       0.00000000       0.00000000       0.00000000       0.00000000       0.00000000 -110049.97656250
Ac       0.00000000       0.00000000       0.23878788       0.00000000       0.00000000  110049.97656250
2
Properties=species:S:1:pos:R:3:forces:R:3 energy=3055.0257241293552 pbc="F F F"
Ac       0.00000000       0.00000000       0.00000000       0.00000000       0.00000000  -41831.63671875
Ac       0.00000000       0.00000000       0.29757576       0.00000000       0.00000000   41831.63671875
2
Properties=species:S:1:pos:R:3:forces:R:3 energy=1421.0523354574805 pbc="F F F"
Ac       0.00000000       0.00000000       0.00000000       0.00000000       0.00000000  -17600.27734375
Ac       0.00000000       0.00000000       0.35636364       0.00000000       0.00000000   17600.27734375
2
Properties=species:S:1:pos:R:3:forces:R:3 energy=709.8870522543554 pbc="F F F"
Ac       0.00000000       0.00000000       0.00000000       0.00000000       0.00000000   -7983.33300781
Ac       0.00000000       0.00000000       0.41515152       0.00000000       0.00000000    7983.33300781
2
Properties=species:S:1:pos:R:3:forces:R:3 energy=378.1123025111673 pbc="F F F"
Ac       0.00000000       0.00000000       0.00000000       0.00000000       0.00000000   -3854.84326172
Ac       0.00000000       0.00000000       0.47393939       0.00000000       0.00000000    3854.84326172
2
Properties=species:S:1:pos:R:3:forces:R:3 energy=213.90304349063544 pbc="F F F"
Ac       0.00000000       0.00000000       0.00000000       0.00000000       0.00000000   -1965.78491211
Ac       0.00000000       0.00000000       0.53272727       0.00000000       0.00000000    1965.78491211
2
Properties=species:S:1:pos:R:3:forces:R:3 energy=128.31582426502547 pbc="F F F"
Ac       0.00000000       0.00000000       0.00000000       0.00000000       0.00000000   -1051.38305664
Ac       0.00000000       0.00000000       0.59151515       0.00000000       0.00000000    1051.38305664
2
Properties=species:S:1:pos:R:3:forces:R:3 energy=81.6685464583368 pbc="F F F"
Ac       0.00000000       0.00000000       0.00000000       0.00000000       0.00000000    -585.64453125
Ac       0.00000000       0.00000000       0.65030303       0.00000000       0.00000000     585.64453125
2
Properties=species:S:1:pos:R:3:forces:R:3 energy=55.27084143089696 pbc="F F F"
Ac       0.00000000       0.00000000       0.00000000       0.00000000       0.00000000    -337.39047241
Ac       0.00000000       0.00000000       0.70909091       0.00000000       0.00000000     337.39047241
2
Properties=species:S:1:pos:R:3:forces:R:3 energy=39.864583864858865 pbc="F F F"
Ac       0.00000000       0.00000000       0.00000000       0.00000000       0.00000000    -199.78497314
Ac       0.00000000       0.00000000       0.76787879       0.00000000       0.00000000     199.78497314
2
Properties=species:S:1:pos:R:3:forces:R:3 energy=30.64241218278191 pbc="F F F"
Ac       0.00000000       0.00000000       0.00000000       0.00000000       0.00000000    -121.07609558
Ac       0.00000000       0.00000000       0.82666667       0.00000000       0.00000000     121.07609558
2
Properties=species:S:1:pos:R:3:forces:R:3 energy=24.995689541258272 pbc="F F F"
Ac       0.00000000       0.00000000       0.00000000       0.00000000       0.00000000     -75.07297516
Ac       0.00000000       0.00000000       0.88545455       0.00000000       0.00000000      75.07297516
2
Properties=species:S:1:pos:R:3:forces:R:3 energy=21.448740370073498 pbc="F F F"
Ac       0.00000000       0.00000000       0.00000000       0.00000000       0.00000000     -47.99113083
Ac       0.00000000       0.00000000       0.94424242       0.00000000       0.00000000      47.99113083
2
Properties=species:S:1:pos:R:3:forces:R:3 energy=19.13143413028716 pbc="F F F"
Ac       0.00000000       0.00000000       0.00000000       0.00000000       0.00000000     -32.32500839
Ac       0.00000000       0.00000000       1.00303030       0.00000000       0.00000000      32.32500839
2
Properties=species:S:1:pos:R:3:forces:R:3 energy=17.50827891655375 pbc="F F F"
Ac       0.00000000       0.00000000       0.00000000       0.00000000       0.00000000     -23.84905434
Ac       0.00000000       0.00000000       1.06181818       0.00000000       0.00000000      23.84905434
2
Properties=species:S:1:pos:R:3:forces:R:3 energy=16.236234300578534 pbc="F F F"
Ac       0.00000000       0.00000000       0.00000000       0.00000000       0.00000000     -20.04972076
Ac       0.00000000       0.00000000       1.12060606       0.00000000       0.00000000      20.04972076
2
Properties=species:S:1:pos:R:3:forces:R:3 energy=15.092536267163762 pbc="F F F"
Ac       0.00000000       0.00000000       0.00000000       0.00000000       0.00000000     -19.23992157
Ac       0.00000000       0.00000000       1.17939394       0.00000000       0.00000000      19.23992157
2
Properties=species:S:1:pos:R:3:forces:R:3 energy=13.941889011745957 pbc="F F F"
Ac       0.00000000       0.00000000       0.00000000       0.00000000       0.00000000     -20.07900429
Ac       0.00000000       0.00000000       1.23818182       0.00000000       0.00000000      20.07900429
2
Properties=species:S:1:pos:R:3:forces:R:3 energy=12.722135907764176 pbc="F F F"
Ac       0.00000000       0.00000000       0.00000000       0.00000000       0.00000000     -21.41183090
Ac       0.00000000       0.00000000       1.29696970       0.00000000       0.00000000      21.41183090
2
Properties=species:S:1:pos:R:3:forces:R:3 energy=11.43464931790231 pbc="F F F"
Ac       0.00000000       0.00000000       0.00000000       0.00000000       0.00000000     -22.22891426
Ac       0.00000000       0.00000000       1.35575758       0.00000000       0.00000000      22.22891426
2
Properties=species:S:1:pos:R:3:forces:R:3 energy=10.132219006298435 pbc="F F F"
Ac       0.00000000       0.00000000       0.00000000       0.00000000       0.00000000     -21.86948586
Ac       0.00000000       0.00000000       1.41454545       0.00000000       0.00000000      21.86948586
2
Properties=species:S:1:pos:R:3:forces:R:3 energy=8.884626327043472 pbc="F F F"
Ac       0.00000000       0.00000000       0.00000000       0.00000000       0.00000000     -20.43831444
Ac       0.00000000       0.00000000       1.47333333       0.00000000       0.00000000      20.43831444
2
Properties=species:S:1:pos:R:3:forces:R:3 energy=7.739271404561488 pbc="F F F"
Ac       0.00000000       0.00000000       0.00000000       0.00000000       0.00000000     -18.48381233
Ac       0.00000000       0.00000000       1.53212121       0.00000000       0.00000000      18.48381233
2
Properties=species:S:1:pos:R:3:forces:R:3 energy=6.713933150309951 pbc="F F F"
Ac       0.00000000       0.00000000       0.00000000       0.00000000       0.00000000     -16.38624001
Ac       0.00000000       0.00000000       1.59090909       0.00000000       0.00000000      16.38624001
2
Properties=species:S:1:pos:R:3:forces:R:3 energy=5.814289403715761 pbc="F F F"
Ac       0.00000000       0.00000000       0.00000000       0.00000000       0.00000000     -14.20542717
Ac       0.00000000       0.00000000       1.64969697       0.00000000       0.00000000      14.20542717
2
Properties=species:S:1:pos:R:3:forces:R:3 energy=5.044991812627497 pbc="F F F"
Ac       0.00000000       0.00000000       0.00000000       0.00000000       0.00000000     -11.95911694
Ac       0.00000000       0.00000000       1.70848485       0.00000000       0.00000000      11.95911694
2
Properties=species:S:1:pos:R:3:forces:R:3 energy=4.409400323717323 pbc="F F F"
Ac       0.00000000       0.00000000       0.00000000       0.00000000       0.00000000      -9.64694214
Ac       0.00000000       0.00000000       1.76727273       0.00000000       0.00000000       9.64694214
2
Properties=species:S:1:pos:R:3:forces:R:3 energy=3.9127941405478794 pbc="F F F"
Ac       0.00000000       0.00000000       0.00000000       0.00000000       0.00000000      -7.24666977
Ac       0.00000000       0.00000000       1.82606061       0.00000000       0.00000000       7.24666977
2
Properties=species:S:1:pos:R:3:forces:R:3 energy=3.552041799809419 pbc="F F F"
Ac       0.00000000       0.00000000       0.00000000       0.00000000       0.00000000      -5.12791586
Ac       0.00000000       0.00000000       1.88484848       0.00000000       0.00000000       5.12791586
2
Properties=species:S:1:pos:R:3:forces:R:3 energy=3.2930417922892143 pbc="F F F"
Ac       0.00000000       0.00000000       0.00000000       0.00000000       0.00000000      -3.84686947
Ac       0.00000000       0.00000000       1.94363636       0.00000000       0.00000000       3.84686947
2
Properties=species:S:1:pos:R:3:forces:R:3 energy=3.0811018012664326 pbc="F F F"
Ac       0.00000000       0.00000000       0.00000000       0.00000000       0.00000000      -3.50995135
Ac       0.00000000       0.00000000       2.00242424       0.00000000       0.00000000       3.50995135
2
Properties=species:S:1:pos:R:3:forces:R:3 energy=2.864842876370459 pbc="F F F"
Ac       0.00000000       0.00000000       0.00000000       0.00000000       0.00000000      -3.96376228
Ac       0.00000000       0.00000000       2.06121212       0.00000000       0.00000000       3.96376228
2
Properties=species:S:1:pos:R:3:forces:R:3 energy=2.6036885873024804 pbc="F F F"
Ac       0.00000000       0.00000000       0.00000000       0.00000000       0.00000000      -4.99395323
Ac       0.00000000       0.00000000       2.12000000       0.00000000       0.00000000       4.99395323
2
Properties=species:S:1:pos:R:3:forces:R:3 energy=2.2724884495927102 pbc="F F F"
Ac       0.00000000       0.00000000       0.00000000       0.00000000       0.00000000      -6.28706551
Ac       0.00000000       0.00000000       2.17878788       0.00000000       0.00000000       6.28706551
2
Properties=species:S:1:pos:R:3:forces:R:3 energy=1.866380935687036 pbc="F F F"
Ac       0.00000000       0.00000000       0.00000000       0.00000000       0.00000000      -7.48590708
Ac       0.00000000       0.00000000       2.23757576       0.00000000       0.00000000       7.48590708
2
Properties=species:S:1:pos:R:3:forces:R:3 energy=1.3997745626389577 pbc="F F F"
Ac       0.00000000       0.00000000       0.00000000       0.00000000       0.00000000      -8.31052494
Ac       0.00000000       0.00000000       2.29636364       0.00000000       0.00000000       8.31052494
2
Properties=species:S:1:pos:R:3:forces:R:3 energy=0.8990673903226813 pbc="F F F"
Ac       0.00000000       0.00000000       0.00000000       0.00000000       0.00000000      -8.64036179
Ac       0.00000000       0.00000000       2.35515152       0.00000000       0.00000000       8.64036179
2
Properties=species:S:1:pos:R:3:forces:R:3 energy=0.39302256040683037 pbc="F F F"
Ac       0.00000000       0.00000000       0.00000000       0.00000000       0.00000000      -8.50605869
Ac       0.00000000       0.00000000       2.41393939       0.00000000       0.00000000       8.50605869
2
Properties=species:S:1:pos:R:3:forces:R:3 energy=-0.0940494572691517 pbc="F F F"
Ac       0.00000000       0.00000000       0.00000000       0.00000000       0.00000000      -8.01512909
Ac       0.00000000       0.00000000       2.47272727       0.00000000       0.00000000       8.01512909
2
Properties=species:S:1:pos:R:3:forces:R:3 energy=-0.5447372770272156 pbc="F F F"
Ac       0.00000000       0.00000000       0.00000000       0.00000000       0.00000000      -7.28760624
Ac       0.00000000       0.00000000       2.53151515       0.00000000       0.00000000       7.28760624
2
Properties=species:S:1:pos:R:3:forces:R:3 energy=-0.9483516705901285 pbc="F F F"
Ac       0.00000000       0.00000000       0.00000000       0.00000000       0.00000000      -6.42945004
Ac       0.00000000       0.00000000       2.59030303       0.00000000       0.00000000       6.42945004
2
Properties=species:S:1:pos:R:3:forces:R:3 energy=-1.2997752518742605 pbc="F F F"
Ac       0.00000000       0.00000000       0.00000000       0.00000000       0.00000000      -5.52399302
Ac       0.00000000       0.00000000       2.64909091       0.00000000       0.00000000       5.52399302
2
Properties=species:S:1:pos:R:3:forces:R:3 energy=-1.5980745835439378 pbc="F F F"
Ac       0.00000000       0.00000000       0.00000000       0.00000000       0.00000000      -4.62999868
Ac       0.00000000       0.00000000       2.70787879       0.00000000       0.00000000       4.62999868
2
Properties=species:S:1:pos:R:3:forces:R:3 energy=-1.8451425829002246 pbc="F F F"
Ac       0.00000000       0.00000000       0.00000000       0.00000000       0.00000000      -3.78618336
Ac       0.00000000       0.00000000       2.76666667       0.00000000       0.00000000       3.78618336
2
Properties=species:S:1:pos:R:3:forces:R:3 energy=-2.0447259022069693 pbc="F F F"
Ac       0.00000000       0.00000000       0.00000000       0.00000000       0.00000000      -3.01793981
Ac       0.00000000       0.00000000       2.82545455       0.00000000       0.00000000       3.01793981
2
Properties=species:S:1:pos:R:3:forces:R:3 energy=-2.201770269286458 pbc="F F F"
Ac       0.00000000       0.00000000       0.00000000       0.00000000       0.00000000      -2.34073663
Ac       0.00000000       0.00000000       2.88424242       0.00000000       0.00000000       2.34073663
2
Properties=species:S:1:pos:R:3:forces:R:3 energy=-2.3218453407111954 pbc="F F F"
Ac       0.00000000       0.00000000       0.00000000       0.00000000       0.00000000      -1.76043236
Ac       0.00000000       0.00000000       2.94303030       0.00000000       0.00000000       1.76043236
2
Properties=species:S:1:pos:R:3:forces:R:3 energy=-2.4106002096220864 pbc="F F F"
Ac       0.00000000       0.00000000       0.00000000       0.00000000       0.00000000      -1.27422094
Ac       0.00000000       0.00000000       3.00181818       0.00000000       0.00000000       1.27422094
2
Properties=species:S:1:pos:R:3:forces:R:3 energy=-2.473354472347813 pbc="F F F"
Ac       0.00000000       0.00000000       0.00000000       0.00000000       0.00000000      -0.87438565
Ac       0.00000000       0.00000000       3.06060606       0.00000000       0.00000000       0.87438565
2
Properties=species:S:1:pos:R:3:forces:R:3 energy=-2.5149414906998646 pbc="F F F"
Ac       0.00000000       0.00000000       0.00000000       0.00000000       0.00000000      -0.55286008
Ac       0.00000000       0.00000000       3.11939394       0.00000000       0.00000000       0.55286008
2
Properties=species:S:1:pos:R:3:forces:R:3 energy=-2.5397676544925205 pbc="F F F"
Ac       0.00000000       0.00000000       0.00000000       0.00000000       0.00000000      -0.30330601
Ac       0.00000000       0.00000000       3.17818182       0.00000000       0.00000000       0.30330601
2
Properties=species:S:1:pos:R:3:forces:R:3 energy=-2.5518900829929665 pbc="F F F"
Ac       0.00000000       0.00000000       0.00000000       0.00000000       0.00000000      -0.11938553
Ac       0.00000000       0.00000000       3.23696970       0.00000000       0.00000000       0.11938553
2
Properties=species:S:1:pos:R:3:forces:R:3 energy=-2.55490303630733 pbc="F F F"
Ac       0.00000000       0.00000000       0.00000000       0.00000000       0.00000000       0.00867417
Ac       0.00000000       0.00000000       3.29575758       0.00000000       0.00000000      -0.00867417
2
Properties=species:S:1:pos:R:3:forces:R:3 energy=-2.5516749880371856 pbc="F F F"
Ac       0.00000000       0.00000000       0.00000000       0.00000000       0.00000000       0.09582578
Ac       0.00000000       0.00000000       3.35454545       0.00000000       0.00000000      -0.09582578
2
Properties=species:S:1:pos:R:3:forces:R:3 energy=-2.5440766196951814 pbc="F F F"
Ac       0.00000000       0.00000000       0.00000000       0.00000000       0.00000000       0.16050600
Ac       0.00000000       0.00000000       3.41333333       0.00000000       0.00000000      -0.16050600
2
Properties=species:S:1:pos:R:3:forces:R:3 energy=-2.532891320367051 pbc="F F F"
Ac       0.00000000       0.00000000       0.00000000       0.00000000       0.00000000       0.22047926
Ac       0.00000000       0.00000000       3.47212121       0.00000000       0.00000000      -0.22047926
2
Properties=species:S:1:pos:R:3:forces:R:3 energy=-2.517987215555933 pbc="F F F"
Ac       0.00000000       0.00000000       0.00000000       0.00000000       0.00000000       0.28868765
Ac       0.00000000       0.00000000       3.53090909       0.00000000       0.00000000      -0.28868765
2
Properties=species:S:1:pos:R:3:forces:R:3 energy=-2.498668218365215 pbc="F F F"
Ac       0.00000000       0.00000000       0.00000000       0.00000000       0.00000000       0.37101197
Ac       0.00000000       0.00000000       3.58969697       0.00000000       0.00000000      -0.37101197
2
Properties=species:S:1:pos:R:3:forces:R:3 energy=-2.4741061199915975 pbc="F F F"
Ac       0.00000000       0.00000000       0.00000000       0.00000000       0.00000000       0.46635121
Ac       0.00000000       0.00000000       3.64848485       0.00000000       0.00000000      -0.46635121
2
Properties=species:S:1:pos:R:3:forces:R:3 energy=-2.443703323418309 pbc="F F F"
Ac       0.00000000       0.00000000       0.00000000       0.00000000       0.00000000       0.56842726
Ac       0.00000000       0.00000000       3.70727273       0.00000000       0.00000000      -0.56842726
2
Properties=species:S:1:pos:R:3:forces:R:3 energy=-2.4073132815663745 pbc="F F F"
Ac       0.00000000       0.00000000       0.00000000       0.00000000       0.00000000       0.66845250
Ac       0.00000000       0.00000000       3.76606061       0.00000000       0.00000000      -0.66845250
2
Properties=species:S:1:pos:R:3:forces:R:3 energy=-2.3653189116645588 pbc="F F F"
Ac       0.00000000       0.00000000       0.00000000       0.00000000       0.00000000       0.75786531
Ac       0.00000000       0.00000000       3.82484848       0.00000000       0.00000000      -0.75786531
2
Properties=species:S:1:pos:R:3:forces:R:3 energy=-2.3185379684160434 pbc="F F F"
Ac       0.00000000       0.00000000       0.00000000       0.00000000       0.00000000       0.83047861
Ac       0.00000000       0.00000000       3.88363636       0.00000000       0.00000000      -0.83047861
2
Properties=species:S:1:pos:R:3:forces:R:3 energy=-2.2680592757771594 pbc="F F F"
Ac       0.00000000       0.00000000       0.00000000       0.00000000       0.00000000       0.88356054
Ac       0.00000000       0.00000000       3.94242424       0.00000000       0.00000000      -0.88356054
2
Properties=species:S:1:pos:R:3:forces:R:3 energy=-2.215026529655392 pbc="F F F"
Ac       0.00000000       0.00000000       0.00000000       0.00000000       0.00000000       0.91770172
Ac       0.00000000       0.00000000       4.00121212       0.00000000       0.00000000      -0.91770172
2
Properties=species:S:1:pos:R:3:forces:R:3 energy=-2.160476089248382 pbc="F F F"
Ac       0.00000000       0.00000000       0.00000000       0.00000000       0.00000000       0.93576705
Ac       0.00000000       0.00000000       4.06000000       0.00000000       0.00000000      -0.93576705
2
Properties=species:S:1:pos:R:3:forces:R:3 energy=-2.10524331938799 pbc="F F F"
Ac       0.00000000       0.00000000       0.00000000       0.00000000       0.00000000       0.94159180
Ac       0.00000000       0.00000000       4.11878788       0.00000000       0.00000000      -0.94159180
2
Properties=species:S:1:pos:R:3:forces:R:3 energy=-2.0499323822407916 pbc="F F F"
Ac       0.00000000       0.00000000       0.00000000       0.00000000       0.00000000       0.93895340
Ac       0.00000000       0.00000000       4.17757576       0.00000000       0.00000000      -0.93895340
2
Properties=species:S:1:pos:R:3:forces:R:3 energy=-1.994945354884997 pbc="F F F"
Ac       0.00000000       0.00000000       0.00000000       0.00000000       0.00000000       0.93108481
Ac       0.00000000       0.00000000       4.23636364       0.00000000       0.00000000      -0.93108481
2
Properties=species:S:1:pos:R:3:forces:R:3 energy=-1.9405086886050373 pbc="F F F"
Ac       0.00000000       0.00000000       0.00000000       0.00000000       0.00000000       0.92063069
Ac       0.00000000       0.00000000       4.29515152       0.00000000       0.00000000      -0.92063069
2
Properties=species:S:1:pos:R:3:forces:R:3 energy=-1.8867102449667519 pbc="F F F"
Ac       0.00000000       0.00000000       0.00000000       0.00000000       0.00000000       0.90978539
Ac       0.00000000       0.00000000       4.35393939       0.00000000       0.00000000      -0.90978539
2
Properties=species:S:1:pos:R:3:forces:R:3 energy=-1.833512434181814 pbc="F F F"
Ac       0.00000000       0.00000000       0.00000000       0.00000000       0.00000000       0.90040189
Ac       0.00000000       0.00000000       4.41272727       0.00000000       0.00000000      -0.90040189
2
Properties=species:S:1:pos:R:3:forces:R:3 energy=-1.7807859081551167 pbc="F F F"
Ac       0.00000000       0.00000000       0.00000000       0.00000000       0.00000000       0.89396763
Ac       0.00000000       0.00000000       4.47151515       0.00000000       0.00000000      -0.89396763
2
Properties=species:S:1:pos:R:3:forces:R:3 energy=-1.7283257602768625 pbc="F F F"
Ac       0.00000000       0.00000000       0.00000000       0.00000000       0.00000000       0.89143288
Ac       0.00000000       0.00000000       4.53030303       0.00000000       0.00000000      -0.89143288
2
Properties=species:S:1:pos:R:3:forces:R:3 energy=-1.675894159166665 pbc="F F F"
Ac       0.00000000       0.00000000       0.00000000       0.00000000       0.00000000       0.89302564
Ac       0.00000000       0.00000000       4.58909091       0.00000000       0.00000000      -0.89302564
2
Properties=species:S:1:pos:R:3:forces:R:3 energy=-1.6232574227625987 pbc="F F F"
Ac       0.00000000       0.00000000       0.00000000       0.00000000       0.00000000       0.89825237
Ac       0.00000000       0.00000000       4.64787879       0.00000000       0.00000000      -0.89825237
2
Properties=species:S:1:pos:R:3:forces:R:3 energy=-1.5702304021907787 pbc="F F F"
Ac       0.00000000       0.00000000       0.00000000       0.00000000       0.00000000       0.90603560
Ac       0.00000000       0.00000000       4.70666667       0.00000000       0.00000000      -0.90603560
2
Properties=species:S:1:pos:R:3:forces:R:3 energy=-1.516703837713465 pbc="F F F"
Ac       0.00000000       0.00000000       0.00000000       0.00000000       0.00000000       0.91517407
Ac       0.00000000       0.00000000       4.76545455       0.00000000       0.00000000      -0.91517407
2
Properties=species:S:1:pos:R:3:forces:R:3 energy=-1.4626150269081903 pbc="F F F"
Ac       0.00000000       0.00000000       0.00000000       0.00000000       0.00000000       0.92490953
Ac       0.00000000       0.00000000       4.82424242       0.00000000       0.00000000      -0.92490953
2
Properties=species:S:1:pos:R:3:forces:R:3 energy=-1.4079438855935111 pbc="F F F"
Ac       0.00000000       0.00000000       0.00000000       0.00000000       0.00000000       0.93545592
Ac       0.00000000       0.00000000       4.88303030       0.00000000       0.00000000      -0.93545592
2
Properties=species:S:1:pos:R:3:forces:R:3 energy=-1.3525896905913057 pbc="F F F"
Ac       0.00000000       0.00000000       0.00000000       0.00000000       0.00000000       0.94808388
Ac       0.00000000       0.00000000       4.94181818       0.00000000       0.00000000      -0.94808388
2
Properties=species:S:1:pos:R:3:forces:R:3 energy=-1.2963941389727627 pbc="F F F"
Ac       0.00000000       0.00000000       0.00000000       0.00000000       0.00000000       0.96451581
Ac       0.00000000       0.00000000       5.00060606       0.00000000       0.00000000      -0.96451581
2
Properties=species:S:1:pos:R:3:forces:R:3 energy=-1.2390984010359227 pbc="F F F"
Ac       0.00000000       0.00000000       0.00000000       0.00000000       0.00000000       0.98514968
Ac       0.00000000       0.00000000       5.05939394       0.00000000       0.00000000      -0.98514968
2
Properties=species:S:1:pos:R:3:forces:R:3 energy=-1.1805463594730723 pbc="F F F"
Ac       0.00000000       0.00000000       0.00000000       0.00000000       0.00000000       1.00645506
Ac       0.00000000       0.00000000       5.11818182       0.00000000       0.00000000      -1.00645506
2
Properties=species:S:1:pos:R:3:forces:R:3 energy=-1.1209520274854292 pbc="F F F"
Ac       0.00000000       0.00000000       0.00000000       0.00000000       0.00000000       1.01808584
Ac       0.00000000       0.00000000       5.17696970       0.00000000       0.00000000      -1.01808584
2
Properties=species:S:1:pos:R:3:forces:R:3 energy=-1.0613715427099828 pbc="F F F"
Ac       0.00000000       0.00000000       0.00000000       0.00000000       0.00000000       1.00296223
Ac       0.00000000       0.00000000       5.23575758       0.00000000       0.00000000      -1.00296223
2
Properties=species:S:1:pos:R:3:forces:R:3 energy=-1.0038286401644396 pbc="F F F"
Ac       0.00000000       0.00000000       0.00000000       0.00000000       0.00000000       0.94816095
Ac       0.00000000       0.00000000       5.29454545       0.00000000       0.00000000      -0.94816095
2
Properties=species:S:1:pos:R:3:forces:R:3 energy=-0.950315983927607 pbc="F F F"
Ac       0.00000000       0.00000000       0.00000000       0.00000000       0.00000000       0.87342954
Ac       0.00000000       0.00000000       5.35333333       0.00000000       0.00000000      -0.87342954
2
Properties=species:S:1:pos:R:3:forces:R:3 energy=-0.9002991745381161 pbc="F F F"
Ac       0.00000000       0.00000000       0.00000000       0.00000000       0.00000000       0.83991688
Ac       0.00000000       0.00000000       5.41212121       0.00000000       0.00000000      -0.83991688
2
Properties=species:S:1:pos:R:3:forces:R:3 energy=-0.8504182045838765 pbc="F F F"
Ac       0.00000000       0.00000000       0.00000000       0.00000000       0.00000000       0.85950243
Ac       0.00000000       0.00000000       5.47090909       0.00000000       0.00000000      -0.85950243
2
Properties=species:S:1:pos:R:3:forces:R:3 energy=-0.8001353094890566 pbc="F F F"
Ac       0.00000000       0.00000000       0.00000000       0.00000000       0.00000000       0.83589286
Ac       0.00000000       0.00000000       5.52969697       0.00000000       0.00000000      -0.83589286
2
Properties=species:S:1:pos:R:3:forces:R:3 energy=-0.7538337751854057 pbc="F F F"
Ac       0.00000000       0.00000000       0.00000000       0.00000000       0.00000000       0.73101789
Ac       0.00000000       0.00000000       5.58848485       0.00000000       0.00000000      -0.73101789
2
Properties=species:S:1:pos:R:3:forces:R:3 energy=-0.7139694139447631 pbc="F F F"
Ac       0.00000000       0.00000000       0.00000000       0.00000000       0.00000000       0.63901210
Ac       0.00000000       0.00000000       5.64727273       0.00000000       0.00000000      -0.63901210
2
Properties=species:S:1:pos:R:3:forces:R:3 energy=-0.6763486832520005 pbc="F F F"
Ac       0.00000000       0.00000000       0.00000000       0.00000000       0.00000000       0.66114569
Ac       0.00000000       0.00000000       5.70606061       0.00000000       0.00000000      -0.66114569
2
Properties=species:S:1:pos:R:3:forces:R:3 energy=-0.6351675317617065 pbc="F F F"
Ac       0.00000000       0.00000000       0.00000000       0.00000000       0.00000000       0.72681260
Ac       0.00000000       0.00000000       5.76484848       0.00000000       0.00000000      -0.72681260
2
Properties=species:S:1:pos:R:3:forces:R:3 energy=-0.5941170129884118 pbc="F F F"
Ac       0.00000000       0.00000000       0.00000000       0.00000000       0.00000000       0.63496035
Ac       0.00000000       0.00000000       5.82363636       0.00000000       0.00000000      -0.63496035
2
Properties=species:S:1:pos:R:3:forces:R:3 energy=-0.5640343411157699 pbc="F F F"
Ac       0.00000000       0.00000000       0.00000000       0.00000000       0.00000000       0.37800112
Ac       0.00000000       0.00000000       5.88242424       0.00000000       0.00000000      -0.37800112
2
Properties=species:S:1:pos:R:3:forces:R:3 energy=-0.5494689678259431 pbc="F F F"
Ac       0.00000000       0.00000000       0.00000000       0.00000000       0.00000000       0.13178992
Ac       0.00000000       0.00000000       5.94121212       0.00000000       0.00000000      -0.13178992
2
Properties=species:S:1:pos:R:3:forces:R:3 energy=-0.5455147294342102 pbc="F F F"
Ac       0.00000000       0.00000000       0.00000000       0.00000000       0.00000000       0.03497398
Ac       0.00000000       0.00000000       6.00000000       0.00000000       0.00000000      -0.03497398
