2
Properties=species:S:1:pos:R:3:forces:R:3 energy=18943.012540535605 pbc="F F F"
Ac       0.00000000       0.00000000       0.00000000       0.00000000       0.00000000 -340208.75000000
Ac       0.00000000       0.00000000       0.18000000       0.00000000       0.00000000  340208.75000000
2
Properties=species:S:1:pos:R:3:forces:R:3 energy=7159.306485848106 pbc="F F F"
Ac       0.00000000       0.00000000       0.00000000       0.00000000       0.00000000 -110049.96875000
Ac       0.00000000       0.00000000       0.23878788       0.00000000       0.00000000  110049.96875000
2
Properties=species:S:1:pos:R:3:forces:R:3 energy=3055.0257241293552 pbc="F F F"
Ac       0.00000000       0.00000000       0.00000000       0.00000000       0.00000000  -41831.64062500
Ac       0.00000000       0.00000000       0.29757576       0.00000000       0.00000000   41831.64062500
2
Properties=species:S:1:pos:R:3:forces:R:3 energy=1421.0523354574805 pbc="F F F"
Ac       0.00000000       0.00000000       0.00000000       0.00000000       0.00000000  -17600.27539062
Ac       0.00000000       0.00000000       0.35636364       0.00000000       0.00000000   17600.27539062
2
Properties=species:S:1:pos:R:3:forces:R:3 energy=709.8870522543554 pbc="F F F"
Ac       0.00000000       0.00000000       0.00000000       0.00000000       0.00000000   -7983.33349609
Ac       0.00000000       0.00000000       0.41515152       0.00000000       0.00000000    7983.33349609
2
Properties=species:S:1:pos:R:3:forces:R:3 energy=378.1123025111673 pbc="F F F"
Ac       0.00000000       0.00000000       0.00000000       0.00000000       0.00000000   -3854.84350586
Ac       0.00000000       0.00000000       0.47393939       0.00000000       0.00000000    3854.84350586
2
Properties=species:S:1:pos:R:3:forces:R:3 energy=213.90302823184638 pbc="F F F"
Ac       0.00000000       0.00000000       0.00000000       0.00000000       0.00000000   -1965.78491211
Ac       0.00000000       0.00000000       0.53272727       0.00000000       0.00000000    1965.78491211
2
Properties=species:S:1:pos:R:3:forces:R:3 energy=128.31583952381453 pbc="F F F"
Ac       0.00000000       0.00000000       0.00000000       0.00000000       0.00000000   -1051.38293457
Ac       0.00000000       0.00000000       0.59151515       0.00000000       0.00000000    1051.38293457
2
Properties=species:S:1:pos:R:3:forces:R:3 energy=81.66853882894227 pbc="F F F"
Ac       0.00000000       0.00000000       0.00000000       0.00000000       0.00000000    -585.64453125
Ac       0.00000000       0.00000000       0.65030303       0.00000000       0.00000000     585.64453125
2
Properties=species:S:1:pos:R:3:forces:R:3 energy=55.270818542713364 pbc="F F F"
Ac       0.00000000       0.00000000       0.00000000       0.00000000       0.00000000    -337.39047241
Ac       0.00000000       0.00000000       0.70909091       0.00000000       0.00000000     337.39047241
2
Properties=species:S:1:pos:R:3:forces:R:3 energy=39.86457242076707 pbc="F F F"
Ac       0.00000000       0.00000000       0.00000000       0.00000000       0.00000000    -199.78497314
Ac       0.00000000       0.00000000       0.76787879       0.00000000       0.00000000     199.78497314
2
Properties=species:S:1:pos:R:3:forces:R:3 energy=30.64238357255242 pbc="F F F"
Ac       0.00000000       0.00000000       0.00000000       0.00000000       0.00000000    -121.07607269
Ac       0.00000000       0.00000000       0.82666667       0.00000000       0.00000000     121.07607269
2
Properties=species:S:1:pos:R:3:forces:R:3 energy=24.995683819212374 pbc="F F F"
Ac       0.00000000       0.00000000       0.00000000       0.00000000       0.00000000     -75.07297516
Ac       0.00000000       0.00000000       0.88545455       0.00000000       0.00000000      75.07297516
2
Properties=species:S:1:pos:R:3:forces:R:3 energy=21.448725111284435 pbc="F F F"
Ac       0.00000000       0.00000000       0.00000000       0.00000000       0.00000000     -47.99113464
Ac       0.00000000       0.00000000       0.94424242       0.00000000       0.00000000      47.99113464
2
Properties=species:S:1:pos:R:3:forces:R:3 energy=19.13142077884673 pbc="F F F"
Ac       0.00000000       0.00000000       0.00000000       0.00000000       0.00000000     -32.32501221
Ac       0.00000000       0.00000000       1.00303030       0.00000000       0.00000000      32.32501221
2
Properties=species:S:1:pos:R:3:forces:R:3 energy=17.508256028370155 pbc="F F F"
Ac       0.00000000       0.00000000       0.00000000       0.00000000       0.00000000     -23.84903717
Ac       0.00000000       0.00000000       1.06181818       0.00000000       0.00000000      23.84903717
2
Properties=species:S:1:pos:R:3:forces:R:3 energy=16.236209505046308 pbc="F F F"
Ac       0.00000000       0.00000000       0.00000000       0.00000000       0.00000000     -20.04970360
Ac       0.00000000       0.00000000       1.12060606       0.00000000       0.00000000      20.04970360
2
Properties=species:S:1:pos:R:3:forces:R:3 energy=15.092528637769231 pbc="F F F"
Ac       0.00000000       0.00000000       0.00000000       0.00000000       0.00000000     -19.23990059
Ac       0.00000000       0.00000000       1.17939394       0.00000000       0.00000000      19.23990059
2
Properties=species:S:1:pos:R:3:forces:R:3 energy=13.941876613979844 pbc="F F F"
Ac       0.00000000       0.00000000       0.00000000       0.00000000       0.00000000     -20.07898712
Ac       0.00000000       0.00000000       1.23818182       0.00000000       0.00000000      20.07898712
2
Properties=species:S:1:pos:R:3:forces:R:3 energy=12.722114926929216 pbc="F F F"
Ac       0.00000000       0.00000000       0.00000000       0.00000000       0.00000000     -21.41180038
Ac       0.00000000       0.00000000       1.29696970       0.00000000       0.00000000      21.41180038
2
Properties=species:S:1:pos:R:3:forces:R:3 energy=11.434651225250942 pbc="F F F"
Ac       0.00000000       0.00000000       0.00000000       0.00000000       0.00000000     -22.22889709
Ac       0.00000000       0.00000000       1.35575758       0.00000000       0.00000000      22.22889709
2
Properties=species:S:1:pos:R:3:forces:R:3 energy=10.132202793835056 pbc="F F F"
Ac       0.00000000       0.00000000       0.00000000       0.00000000       0.00000000     -21.86945534
Ac       0.00000000       0.00000000       1.41454545       0.00000000       0.00000000      21.86945534
2
Properties=species:S:1:pos:R:3:forces:R:3 energy=8.884623466020523 pbc="F F F"
Ac       0.00000000       0.00000000       0.00000000       0.00000000       0.00000000     -20.43830681
Ac       0.00000000       0.00000000       1.47333333       0.00000000       0.00000000      20.43830681
2
Properties=species:S:1:pos:R:3:forces:R:3 energy=7.739266636189906 pbc="F F F"
Ac       0.00000000       0.00000000       0.00000000       0.00000000       0.00000000     -18.48381615
Ac       0.00000000       0.00000000       1.53212121       0.00000000       0.00000000      18.48381615
2
Properties=species:S:1:pos:R:3:forces:R:3 energy=6.713922659892471 pbc="F F F"
Ac       0.00000000       0.00000000       0.00000000       0.00000000       0.00000000     -16.38621712
Ac       0.00000000       0.00000000       1.59090909       0.00000000       0.00000000      16.38621712
2
Properties=species:S:1:pos:R:3:forces:R:3 energy=5.81428701952997 pbc="F F F"
Ac       0.00000000       0.00000000       0.00000000       0.00000000       0.00000000     -14.20541573
Ac       0.00000000       0.00000000       1.64969697       0.00000000       0.00000000      14.20541573
2
Properties=species:S:1:pos:R:3:forces:R:3 energy=5.044991812627497 pbc="F F F"
Ac       0.00000000       0.00000000       0.00000000       0.00000000       0.00000000     -11.95909786
Ac       0.00000000       0.00000000       1.70848485       0.00000000       0.00000000      11.95909786
2
Properties=species:S:1:pos:R:3:forces:R:3 energy=4.409396509020057 pbc="F F F"
Ac       0.00000000       0.00000000       0.00000000       0.00000000       0.00000000      -9.64692020
Ac       0.00000000       0.00000000       1.76727273       0.00000000       0.00000000       9.64692020
2
Properties=species:S:1:pos:R:3:forces:R:3 energy=3.91279127952493 pbc="F F F"
Ac       0.00000000       0.00000000       0.00000000       0.00000000       0.00000000      -7.24663925
Ac       0.00000000       0.00000000       1.82606061       0.00000000       0.00000000       7.24663925
2
Properties=species:S:1:pos:R:3:forces:R:3 energy=3.5520432303208938 pbc="F F F"
Ac       0.00000000       0.00000000       0.00000000       0.00000000       0.00000000      -5.12789583
Ac       0.00000000       0.00000000       1.88484848       0.00000000       0.00000000       5.12789583
2
Properties=species:S:1:pos:R:3:forces:R:3 energy=3.29304560698648 pbc="F F F"
Ac       0.00000000       0.00000000       0.00000000       0.00000000       0.00000000      -3.84686375
Ac       0.00000000       0.00000000       1.94363636       0.00000000       0.00000000       3.84686375
2
Properties=species:S:1:pos:R:3:forces:R:3 energy=3.0810994170806416 pbc="F F F"
Ac       0.00000000       0.00000000       0.00000000       0.00000000       0.00000000      -3.50994802
Ac       0.00000000       0.00000000       2.00242424       0.00000000       0.00000000       3.50994802
2
Properties=species:S:1:pos:R:3:forces:R:3 energy=2.8648454989748293 pbc="F F F"
Ac       0.00000000       0.00000000       0.00000000       0.00000000       0.00000000      -3.96374726
Ac       0.00000000       0.00000000       2.06121212       0.00000000       0.00000000       3.96374726
2
Properties=species:S:1:pos:R:3:forces:R:3 energy=2.603692640418325 pbc="F F F"
Ac       0.00000000       0.00000000       0.00000000       0.00000000       0.00000000      -4.99394846
Ac       0.00000000       0.00000000       2.12000000       0.00000000       0.00000000       4.99394846
2
Properties=species:S:1:pos:R:3:forces:R:3 energy=2.2724889264298684 pbc="F F F"
Ac       0.00000000       0.00000000       0.00000000       0.00000000       0.00000000      -6.28707170
Ac       0.00000000       0.00000000       2.17878788       0.00000000       0.00000000       6.28707170
2
Properties=species:S:1:pos:R:3:forces:R:3 energy=1.8663837967099852 pbc="F F F"
Ac       0.00000000       0.00000000       0.00000000       0.00000000       0.00000000      -7.48590565
Ac       0.00000000       0.00000000       2.23757576       0.00000000       0.00000000       7.48590565
2
Properties=species:S:1:pos:R:3:forces:R:3 energy=1.3997762315690114 pbc="F F F"
Ac       0.00000000       0.00000000       0.00000000       0.00000000       0.00000000      -8.31052971
Ac       0.00000000       0.00000000       2.29636364       0.00000000       0.00000000       8.31052971
2
Properties=species:S:1:pos:R:3:forces:R:3 energy=0.8990683439969978 pbc="F F F"
Ac       0.00000000       0.00000000       0.00000000       0.00000000       0.00000000      -8.64036560
Ac       0.00000000       0.00000000       2.35515152       0.00000000       0.00000000       8.64036560
2
Properties=species:S:1:pos:R:3:forces:R:3 energy=0.39302482538333183 pbc="F F F"
Ac       0.00000000       0.00000000       0.00000000       0.00000000       0.00000000      -8.50606346
Ac       0.00000000       0.00000000       2.41393939       0.00000000       0.00000000       8.50606346
2
Properties=species:S:1:pos:R:3:forces:R:3 energy=-0.09404617901368906 pbc="F F F"
Ac       0.00000000       0.00000000       0.00000000       0.00000000       0.00000000      -8.01512909
Ac       0.00000000       0.00000000       2.47272727       0.00000000       0.00000000       8.01512909
2
Properties=species:S:1:pos:R:3:forces:R:3 energy=-0.5447355484925172 pbc="F F F"
Ac       0.00000000       0.00000000       0.00000000       0.00000000       0.00000000      -7.28760099
Ac       0.00000000       0.00000000       2.53151515       0.00000000       0.00000000       7.28760099
2
Properties=species:S:1:pos:R:3:forces:R:3 energy=-0.9483510745436807 pbc="F F F"
Ac       0.00000000       0.00000000       0.00000000       0.00000000       0.00000000      -6.42945290
Ac       0.00000000       0.00000000       2.59030303       0.00000000       0.00000000       6.42945290
2
Properties=species:S:1:pos:R:3:forces:R:3 energy=-1.299774298199944 pbc="F F F"
Ac       0.00000000       0.00000000       0.00000000       0.00000000       0.00000000      -5.52399349
Ac       0.00000000       0.00000000       2.64909091       0.00000000       0.00000000       5.52399349
2
Properties=species:S:1:pos:R:3:forces:R:3 energy=-1.5980719609395677 pbc="F F F"
Ac       0.00000000       0.00000000       0.00000000       0.00000000       0.00000000      -4.62999535
Ac       0.00000000       0.00000000       2.70787879       0.00000000       0.00000000       4.62999535
2
Properties=species:S:1:pos:R:3:forces:R:3 energy=-1.8451416292259082 pbc="F F F"
Ac       0.00000000       0.00000000       0.00000000       0.00000000       0.00000000      -3.78618383
Ac       0.00000000       0.00000000       2.76666667       0.00000000       0.00000000       3.78618383
2
Properties=species:S:1:pos:R:3:forces:R:3 energy=-2.0447247101140738 pbc="F F F"
Ac       0.00000000       0.00000000       0.00000000       0.00000000       0.00000000      -3.01794052
Ac       0.00000000       0.00000000       2.82545455       0.00000000       0.00000000       3.01794052
2
Properties=species:S:1:pos:R:3:forces:R:3 energy=-2.201768838774983 pbc="F F F"
Ac       0.00000000       0.00000000       0.00000000       0.00000000       0.00000000      -2.34073544
Ac       0.00000000       0.00000000       2.88424242       0.00000000       0.00000000       2.34073544
2
Properties=species:S:1:pos:R:3:forces:R:3 energy=-2.321844863874037 pbc="F F F"
Ac       0.00000000       0.00000000       0.00000000       0.00000000       0.00000000      -1.76043320
Ac       0.00000000       0.00000000       2.94303030       0.00000000       0.00000000       1.76043320
2
Properties=species:S:1:pos:R:3:forces:R:3 energy=-2.410598779110612 pbc="F F F"
Ac       0.00000000       0.00000000       0.00000000       0.00000000       0.00000000      -1.27421904
Ac       0.00000000       0.00000000       3.00181818       0.00000000       0.00000000       1.27421904
2
Properties=species:S:1:pos:R:3:forces:R:3 energy=-2.4733535186734965 pbc="F F F"
Ac       0.00000000       0.00000000       0.00000000       0.00000000       0.00000000      -0.87438375
Ac       0.00000000       0.00000000       3.06060606       0.00000000       0.00000000       0.87438375
2
Properties=species:S:1:pos:R:3:forces:R:3 energy=-2.51494006018839 pbc="F F F"
Ac       0.00000000       0.00000000       0.00000000       0.00000000       0.00000000      -0.55286258
Ac       0.00000000       0.00000000       3.11939394       0.00000000       0.00000000       0.55286258
2
Properties=species:S:1:pos:R:3:forces:R:3 energy=-2.539766939236783 pbc="F F F"
Ac       0.00000000       0.00000000       0.00000000       0.00000000       0.00000000      -0.30330688
Ac       0.00000000       0.00000000       3.17818182       0.00000000       0.00000000       0.30330688
2
Properties=species:S:1:pos:R:3:forces:R:3 energy=-2.5518896061558083 pbc="F F F"
Ac       0.00000000       0.00000000       0.00000000       0.00000000       0.00000000      -0.11938654
Ac       0.00000000       0.00000000       3.23696970       0.00000000       0.00000000       0.11938654
2
Properties=species:S:1:pos:R:3:forces:R:3 energy=-2.5549016057958553 pbc="F F F"
Ac       0.00000000       0.00000000       0.00000000       0.00000000       0.00000000       0.00867322
Ac       0.00000000       0.00000000       3.29575758       0.00000000       0.00000000      -0.00867322
2
Properties=species:S:1:pos:R:3:forces:R:3 energy=-2.5516745112000274 pbc="F F F"
Ac       0.00000000       0.00000000       0.00000000       0.00000000       0.00000000       0.09582396
Ac       0.00000000       0.00000000       3.35454545       0.00000000       0.00000000      -0.09582396
2
Properties=species:S:1:pos:R:3:forces:R:3 energy=-2.544075427602286 pbc="F F F"
Ac       0.00000000       0.00000000       0.00000000       0.00000000       0.00000000       0.16050564
Ac       0.00000000       0.00000000       3.41333333       0.00000000       0.00000000      -0.16050564
2
Properties=species:S:1:pos:R:3:forces:R:3 energy=-2.5328898898555763 pbc="F F F"
Ac       0.00000000       0.00000000       0.00000000       0.00000000       0.00000000       0.22047810
Ac       0.00000000       0.00000000       3.47212121       0.00000000       0.00000000      -0.22047810
2
Properties=species:S:1:pos:R:3:forces:R:3 energy=-2.5179865003001956 pbc="F F F"
Ac       0.00000000       0.00000000       0.00000000       0.00000000       0.00000000       0.28868669
Ac       0.00000000       0.00000000       3.53090909       0.00000000       0.00000000      -0.28868669
2
Properties=species:S:1:pos:R:3:forces:R:3 energy=-2.498667503109478 pbc="F F F"
Ac       0.00000000       0.00000000       0.00000000       0.00000000       0.00000000       0.37101251
Ac       0.00000000       0.00000000       3.58969697       0.00000000       0.00000000      -0.37101251
2
Properties=species:S:1:pos:R:3:forces:R:3 energy=-2.4741054174071486 pbc="F F F"
Ac       0.00000000       0.00000000       0.00000000       0.00000000       0.00000000       0.46635035
Ac       0.00000000       0.00000000       3.64848485       0.00000000       0.00000000      -0.46635035
2
Properties=species:S:1:pos:R:3:forces:R:3 energy=-2.4437021313254137 pbc="F F F"
Ac       0.00000000       0.00000000       0.00000000       0.00000000       0.00000000       0.56842691
Ac       0.00000000       0.00000000       3.70727273       0.00000000       0.00000000      -0.56842691
2
Properties=species:S:1:pos:R:3:forces:R:3 energy=-2.4073130431477954 pbc="F F F"
Ac       0.00000000       0.00000000       0.00000000       0.00000000       0.00000000       0.66845208
Ac       0.00000000       0.00000000       3.76606061       0.00000000       0.00000000      -0.66845208
2
Properties=species:S:1:pos:R:3:forces:R:3 energy=-2.3653186732459797 pbc="F F F"
Ac       0.00000000       0.00000000       0.00000000       0.00000000       0.00000000       0.75786442
Ac       0.00000000       0.00000000       3.82484848       0.00000000       0.00000000      -0.75786442
2
Properties=species:S:1:pos:R:3:forces:R:3 energy=-2.3185382068346225 pbc="F F F"
Ac       0.00000000       0.00000000       0.00000000       0.00000000       0.00000000       0.83047539
Ac       0.00000000       0.00000000       3.88363636       0.00000000       0.00000000      -0.83047539
2
Properties=species:S:1:pos:R:3:forces:R:3 energy=-2.268058798940001 pbc="F F F"
Ac       0.00000000       0.00000000       0.00000000       0.00000000       0.00000000       0.88355845
Ac       0.00000000       0.00000000       3.94242424       0.00000000       0.00000000      -0.88355845
2
Properties=species:S:1:pos:R:3:forces:R:3 energy=-2.215026291236813 pbc="F F F"
Ac       0.00000000       0.00000000       0.00000000       0.00000000       0.00000000       0.91770059
Ac       0.00000000       0.00000000       4.00121212       0.00000000       0.00000000      -0.91770059
2
Properties=species:S:1:pos:R:3:forces:R:3 energy=-2.1604753739926448 pbc="F F F"
Ac       0.00000000       0.00000000       0.00000000       0.00000000       0.00000000       0.93576628
Ac       0.00000000       0.00000000       4.06000000       0.00000000       0.00000000      -0.93576628
2
Properties=species:S:1:pos:R:3:forces:R:3 energy=-2.1052421272950945 pbc="F F F"
Ac       0.00000000       0.00000000       0.00000000       0.00000000       0.00000000       0.94159037
Ac       0.00000000       0.00000000       4.11878788       0.00000000       0.00000000      -0.94159037
2
Properties=species:S:1:pos:R:3:forces:R:3 energy=-2.049931786194344 pbc="F F F"
Ac       0.00000000       0.00000000       0.00000000       0.00000000       0.00000000       0.93895060
Ac       0.00000000       0.00000000       4.17757576       0.00000000       0.00000000      -0.93895060
2
Properties=species:S:1:pos:R:3:forces:R:3 energy=-1.994945593303576 pbc="F F F"
Ac       0.00000000       0.00000000       0.00000000       0.00000000       0.00000000       0.93108326
Ac       0.00000000       0.00000000       4.23636364       0.00000000       0.00000000      -0.93108326
2
Properties=species:S:1:pos:R:3:forces:R:3 energy=-1.9405084501864582 pbc="F F F"
Ac       0.00000000       0.00000000       0.00000000       0.00000000       0.00000000       0.92062759
Ac       0.00000000       0.00000000       4.29515152       0.00000000       0.00000000      -0.92062759
2
Properties=species:S:1:pos:R:3:forces:R:3 energy=-1.8867100065481728 pbc="F F F"
Ac       0.00000000       0.00000000       0.00000000       0.00000000       0.00000000       0.90978527
Ac       0.00000000       0.00000000       4.35393939       0.00000000       0.00000000      -0.90978527
2
Properties=species:S:1:pos:R:3:forces:R:3 energy=-1.833512195763235 pbc="F F F"
Ac       0.00000000       0.00000000       0.00000000       0.00000000       0.00000000       0.90040249
Ac       0.00000000       0.00000000       4.41272727       0.00000000       0.00000000      -0.90040249
2
Properties=species:S:1:pos:R:3:forces:R:3 energy=-1.7807859081551167 pbc="F F F"
Ac       0.00000000       0.00000000       0.00000000       0.00000000       0.00000000       0.89396656
Ac       0.00000000       0.00000000       4.47151515       0.00000000       0.00000000      -0.89396656
2
Properties=species:S:1:pos:R:3:forces:R:3 energy=-1.7283254026489938 pbc="F F F"
Ac       0.00000000       0.00000000       0.00000000       0.00000000       0.00000000       0.89142805
Ac       0.00000000       0.00000000       4.53030303       0.00000000       0.00000000      -0.89142805
2
Properties=species:S:1:pos:R:3:forces:R:3 energy=-1.675894159166665 pbc="F F F"
Ac       0.00000000       0.00000000       0.00000000       0.00000000       0.00000000       0.89302576
Ac       0.00000000       0.00000000       4.58909091       0.00000000       0.00000000      -0.89302576
2
Properties=species:S:1:pos:R:3:forces:R:3 energy=-1.6232571843440196 pbc="F F F"
Ac       0.00000000       0.00000000       0.00000000       0.00000000       0.00000000       0.89825094
Ac       0.00000000       0.00000000       4.64787879       0.00000000       0.00000000      -0.89825094
2
Properties=species:S:1:pos:R:3:forces:R:3 energy=-1.5702302829814891 pbc="F F F"
Ac       0.00000000       0.00000000       0.00000000       0.00000000       0.00000000       0.90603369
Ac       0.00000000       0.00000000       4.70666667       0.00000000       0.00000000      -0.90603369
2
Properties=species:S:1:pos:R:3:forces:R:3 energy=-1.516703003248438 pbc="F F F"
Ac       0.00000000       0.00000000       0.00000000       0.00000000       0.00000000       0.91517186
Ac       0.00000000       0.00000000       4.76545455       0.00000000       0.00000000      -0.91517186
2
Properties=species:S:1:pos:R:3:forces:R:3 energy=-1.462616457419665 pbc="F F F"
Ac       0.00000000       0.00000000       0.00000000       0.00000000       0.00000000       0.92491561
Ac       0.00000000       0.00000000       4.82424242       0.00000000       0.00000000      -0.92491561
2
Properties=species:S:1:pos:R:3:forces:R:3 energy=-1.4079440048028007 pbc="F F F"
Ac       0.00000000       0.00000000       0.00000000       0.00000000       0.00000000       0.93545127
Ac       0.00000000       0.00000000       4.88303030       0.00000000       0.00000000      -0.93545127
2
Properties=species:S:1:pos:R:3:forces:R:3 energy=-1.3525896905913057 pbc="F F F"
Ac       0.00000000       0.00000000       0.00000000       0.00000000       0.00000000       0.94809175
Ac       0.00000000       0.00000000       4.94181818       0.00000000       0.00000000      -0.94809175
2
Properties=species:S:1:pos:R:3:forces:R:3 energy=-1.2963908011126553 pbc="F F F"
Ac       0.00000000       0.00000000       0.00000000       0.00000000       0.00000000       0.96451783
Ac       0.00000000       0.00000000       5.00060606       0.00000000       0.00000000      -0.96451783
2
Properties=species:S:1:pos:R:3:forces:R:3 energy=-1.2390984010359227 pbc="F F F"
Ac       0.00000000       0.00000000       0.00000000       0.00000000       0.00000000       0.98515677
Ac       0.00000000       0.00000000       5.05939394       0.00000000       0.00000000      -0.98515677
2
Properties=species:S:1:pos:R:3:forces:R:3 energy=-1.180542187147938 pbc="F F F"
Ac       0.00000000       0.00000000       0.00000000       0.00000000       0.00000000       1.00645876
Ac       0.00000000       0.00000000       5.11818182       0.00000000       0.00000000      -1.00645876
2
Properties=species:S:1:pos:R:3:forces:R:3 energy=-1.1209519209474283 pbc="F F F"
Ac       0.00000000       0.00000000       0.00000000       0.00000000       0.00000000       1.01808560
Ac       0.00000000       0.00000000       5.17696970       0.00000000       0.00000000      -1.01808560
2
Properties=species:S:1:pos:R:3:forces:R:3 energy=-1.0613715427099828 pbc="F F F"
Ac       0.00000000       0.00000000       0.00000000       0.00000000       0.00000000       1.00295472
Ac       0.00000000       0.00000000       5.23575758       0.00000000       0.00000000      -1.00295472
2
Properties=species:S:1:pos:R:3:forces:R:3 energy=-1.003831441582744 pbc="F F F"
Ac       0.00000000       0.00000000       0.00000000       0.00000000       0.00000000       0.94815719
Ac       0.00000000       0.00000000       5.29454545       0.00000000       0.00000000      -0.94815719
2
Properties=species:S:1:pos:R:3:forces:R:3 energy=-0.9503159965988955 pbc="F F F"
Ac       0.00000000       0.00000000       0.00000000       0.00000000       0.00000000       0.87342644
Ac       0.00000000       0.00000000       5.35333333       0.00000000       0.00000000      -0.87342644
2
Properties=species:S:1:pos:R:3:forces:R:3 energy=-0.9002926180271908 pbc="F F F"
Ac       0.00000000       0.00000000       0.00000000       0.00000000       0.00000000       0.83992416
Ac       0.00000000       0.00000000       5.41212121       0.00000000       0.00000000      -0.83992416
2
Properties=species:S:1:pos:R:3:forces:R:3 energy=-0.8504182045838765 pbc="F F F"
Ac       0.00000000       0.00000000       0.00000000       0.00000000       0.00000000       0.85949987
Ac       0.00000000       0.00000000       5.47090909       0.00000000       0.00000000      -0.85949987
2
Properties=species:S:1:pos:R:3:forces:R:3 energy=-0.8001352625557004 pbc="F F F"
Ac       0.00000000       0.00000000       0.00000000       0.00000000       0.00000000       0.83588785
Ac       0.00000000       0.00000000       5.52969697       0.00000000       0.00000000      -0.83588785
2
Properties=species:S:1:pos:R:3:forces:R:3 energy=-0.7538338943946953 pbc="F F F"
Ac       0.00000000       0.00000000       0.00000000       0.00000000       0.00000000       0.73100477
Ac       0.00000000       0.00000000       5.58848485       0.00000000       0.00000000      -0.73100477
2
Properties=species:S:1:pos:R:3:forces:R:3 energy=-0.7139453932729186 pbc="F F F"
Ac       0.00000000       0.00000000       0.00000000       0.00000000       0.00000000       0.63905448
Ac       0.00000000       0.00000000       5.64727273       0.00000000       0.00000000      -0.63905448
2
Properties=species:S:1:pos:R:3:forces:R:3 energy=-0.6763486489899329 pbc="F F F"
Ac       0.00000000       0.00000000       0.00000000       0.00000000       0.00000000       0.66113102
Ac       0.00000000       0.00000000       5.70606061       0.00000000       0.00000000      -0.66113102
2
Properties=species:S:1:pos:R:3:forces:R:3 energy=-0.6351675913663513 pbc="F F F"
Ac       0.00000000       0.00000000       0.00000000       0.00000000       0.00000000       0.72678280
Ac       0.00000000       0.00000000       5.76484848       0.00000000       0.00000000      -0.72678280
2
Properties=species:S:1:pos:R:3:forces:R:3 energy=-0.5941596303094262 pbc="F F F"
Ac       0.00000000       0.00000000       0.00000000       0.00000000       0.00000000       0.63465387
Ac       0.00000000       0.00000000       5.82363636       0.00000000       0.00000000      -0.63465387
2
Properties=species:S:1:pos:R:3:forces:R:3 energy=-0.5640343537870585 pbc="F F F"
Ac       0.00000000       0.00000000       0.00000000       0.00000000       0.00000000       0.37790862
Ac       0.00000000       0.00000000       5.88242424       0.00000000       0.00000000      -0.37790862
2
Properties=species:S:1:pos:R:3:forces:R:3 energy=-0.5494689678259431 pbc="F F F"
Ac       0.00000000       0.00000000       0.00000000       0.00000000       0.00000000       0.13156679
Ac       0.00000000       0.00000000       5.94121212       0.00000000       0.00000000      -0.13156679
2
Properties=species:S:1:pos:R:3:forces:R:3 energy=-0.5455147294342102 pbc="F F F"
Ac       0.00000000       0.00000000       0.00000000       0.00000000       0.00000000       0.03497398
Ac       0.00000000       0.00000000       6.00000000       0.00000000       0.00000000      -0.03497398
