2
Properties=species:S:1:pos:R:3:forces:R:3 energy=103282.52425928561 pbc="F F F"
Ac       0.00000000       0.00000000       0.00000000       0.00000000       0.00000000 -2660992.75000000
Ac       0.00000000       0.00000000       0.10000000       0.00000000       0.00000000 2660992.75000000
2
Properties=species:S:1:pos:R:3:forces:R:3 energy=27683.198087410605 pbc="F F F"
Ac       0.00000000       0.00000000       0.00000000       0.00000000       0.00000000 -533690.12500000
Ac       0.00000000       0.00000000       0.15959596       0.00000000       0.00000000  533690.12500000
2
Properties=species:S:1:pos:R:3:forces:R:3 energy=9742.457853035605 pbc="F F F"
Ac       0.00000000       0.00000000       0.00000000       0.00000000       0.00000000 -156755.90625000
Ac       0.00000000       0.00000000       0.21919192       0.00000000       0.00000000  156755.90625000
2
Properties=species:S:1:pos:R:3:forces:R:3 energy=3968.9117104574802 pbc="F F F"
Ac       0.00000000       0.00000000       0.00000000       0.00000000       0.00000000  -56250.71484375
Ac       0.00000000       0.00000000       0.27878788       0.00000000       0.00000000   56250.71484375
2
Properties=species:S:1:pos:R:3:forces:R:3 energy=1781.4759194418555 pbc="F F F"
Ac       0.00000000       0.00000000       0.00000000       0.00000000       0.00000000  -22734.52734375
Ac       0.00000000       0.00000000       0.33838384       0.00000000       0.00000000   22734.52734375
2
Properties=species:S:1:pos:R:3:forces:R:3 energy=863.4746987387304 pbc="F F F"
Ac       0.00000000       0.00000000       0.00000000       0.00000000       0.00000000   -9988.01953125
Ac       0.00000000       0.00000000       0.39797980       0.00000000       0.00000000    9988.01953125
2
Properties=species:S:1:pos:R:3:forces:R:3 energy=447.80380031390166 pbc="F F F"
Ac       0.00000000       0.00000000       0.00000000       0.00000000       0.00000000   -4693.55615234
Ac       0.00000000       0.00000000       0.45757576       0.00000000       0.00000000    4693.55615234
2
Properties=species:S:1:pos:R:3:forces:R:3 energy=247.2816140346048 pbc="F F F"
Ac       0.00000000       0.00000000       0.00000000       0.00000000       0.00000000   -2337.69946289
Ac       0.00000000       0.00000000       0.51717172       0.00000000       0.00000000    2337.69946289
2
Properties=species:S:1:pos:R:3:forces:R:3 energy=145.0654427952989 pbc="F F F"
Ac       0.00000000       0.00000000       0.00000000       0.00000000       0.00000000   -1225.06494141
Ac       0.00000000       0.00000000       0.57676768       0.00000000       0.00000000    1225.06494141
2
Properties=species:S:1:pos:R:3:forces:R:3 energy=90.4093148782827 pbc="F F F"
Ac       0.00000000       0.00000000       0.00000000       0.00000000       0.00000000    -670.59136963
Ac       0.00000000       0.00000000       0.63636364       0.00000000       0.00000000     670.59136963
2
Properties=species:S:1:pos:R:3:forces:R:3 energy=59.97887211890926 pbc="F F F"
Ac       0.00000000       0.00000000       0.00000000       0.00000000       0.00000000    -380.63455200
Ac       0.00000000       0.00000000       0.69595960       0.00000000       0.00000000     380.63455200
2
Properties=species:S:1:pos:R:3:forces:R:3 energy=42.46396054332566 pbc="F F F"
Ac       0.00000000       0.00000000       0.00000000       0.00000000       0.00000000    -222.52993774
Ac       0.00000000       0.00000000       0.75555556       0.00000000       0.00000000     222.52993774
2
Properties=species:S:1:pos:R:3:forces:R:3 energy=32.10589787521277 pbc="F F F"
Ac       0.00000000       0.00000000       0.00000000       0.00000000       0.00000000    -133.32484436
Ac       0.00000000       0.00000000       0.81515152       0.00000000       0.00000000     133.32484436
2
Properties=species:S:1:pos:R:3:forces:R:3 energy=25.834644441452806 pbc="F F F"
Ac       0.00000000       0.00000000       0.00000000       0.00000000       0.00000000     -81.74559021
Ac       0.00000000       0.00000000       0.87474747       0.00000000       0.00000000      81.74559021
2
Properties=species:S:1:pos:R:3:forces:R:3 energy=21.94136652224518 pbc="F F F"
Ac       0.00000000       0.00000000       0.00000000       0.00000000       0.00000000     -51.59963608
Ac       0.00000000       0.00000000       0.93434343       0.00000000       0.00000000      51.59963608
2
Properties=species:S:1:pos:R:3:forces:R:3 energy=19.4336630198856 pbc="F F F"
Ac       0.00000000       0.00000000       0.00000000       0.00000000       0.00000000     -34.19690704
Ac       0.00000000       0.00000000       0.99393939       0.00000000       0.00000000      34.19690704
2
Properties=species:S:1:pos:R:3:forces:R:3 energy=17.70930004765531 pbc="F F F"
Ac       0.00000000       0.00000000       0.00000000       0.00000000       0.00000000     -24.71422195
Ac       0.00000000       0.00000000       1.05353535       0.00000000       0.00000000      24.71422195
2
Properties=species:S:1:pos:R:3:forces:R:3 energy=16.387128389589865 pbc="F F F"
Ac       0.00000000       0.00000000       0.00000000       0.00000000       0.00000000     -20.33637047
Ac       0.00000000       0.00000000       1.11313131       0.00000000       0.00000000      20.33637047
2
Properties=species:S:1:pos:R:3:forces:R:3 energy=15.220717648655562 pbc="F F F"
Ac       0.00000000       0.00000000       0.00000000       0.00000000       0.00000000     -19.22561836
Ac       0.00000000       0.00000000       1.17272727       0.00000000       0.00000000      19.22561836
2
Properties=species:S:1:pos:R:3:forces:R:3 energy=14.059130782482972 pbc="F F F"
Ac       0.00000000       0.00000000       0.00000000       0.00000000       0.00000000     -19.95548630
Ac       0.00000000       0.00000000       1.23232323       0.00000000       0.00000000      19.95548630
2
Properties=species:S:1:pos:R:3:forces:R:3 energy=12.829989683187913 pbc="F F F"
Ac       0.00000000       0.00000000       0.00000000       0.00000000       0.00000000     -21.30414772
Ac       0.00000000       0.00000000       1.29191919       0.00000000       0.00000000      21.30414772
2
Properties=species:S:1:pos:R:3:forces:R:3 energy=11.528901790225458 pbc="F F F"
Ac       0.00000000       0.00000000       0.00000000       0.00000000       0.00000000     -22.20546913
Ac       0.00000000       0.00000000       1.35151515       0.00000000       0.00000000      22.20546913
2
Properties=species:S:1:pos:R:3:forces:R:3 energy=10.207418006782815 pbc="F F F"
Ac       0.00000000       0.00000000       0.00000000       0.00000000       0.00000000     -21.92440414
Ac       0.00000000       0.00000000       1.41111111       0.00000000       0.00000000      21.92440414
2
Properties=species:S:1:pos:R:3:forces:R:3 energy=8.938392476283516 pbc="F F F"
Ac       0.00000000       0.00000000       0.00000000       0.00000000       0.00000000     -20.51756287
Ac       0.00000000       0.00000000       1.47070707       0.00000000       0.00000000      20.51756287
2
Properties=species:S:1:pos:R:3:forces:R:3 energy=7.772941728606218 pbc="F F F"
Ac       0.00000000       0.00000000       0.00000000       0.00000000       0.00000000     -18.54734230
Ac       0.00000000       0.00000000       1.53030303       0.00000000       0.00000000      18.54734230
2
Properties=species:S:1:pos:R:3:forces:R:3 energy=6.7304950719693775 pbc="F F F"
Ac       0.00000000       0.00000000       0.00000000       0.00000000       0.00000000     -16.42293930
Ac       0.00000000       0.00000000       1.58989899       0.00000000       0.00000000      16.42293930
2
Properties=species:S:1:pos:R:3:forces:R:3 energy=5.817155659202431 pbc="F F F"
Ac       0.00000000       0.00000000       0.00000000       0.00000000       0.00000000     -14.21303654
Ac       0.00000000       0.00000000       1.64949495       0.00000000       0.00000000      14.21303654
2
Properties=species:S:1:pos:R:3:forces:R:3 energy=5.037750150062309 pbc="F F F"
Ac       0.00000000       0.00000000       0.00000000       0.00000000       0.00000000     -11.93571472
Ac       0.00000000       0.00000000       1.70909091       0.00000000       0.00000000      11.93571472
2
Properties=species:S:1:pos:R:3:forces:R:3 energy=4.395790589603353 pbc="F F F"
Ac       0.00000000       0.00000000       0.00000000       0.00000000       0.00000000      -9.58985329
Ac       0.00000000       0.00000000       1.76868687       0.00000000       0.00000000       9.58985329
2
Properties=species:S:1:pos:R:3:forces:R:3 energy=3.8967898442670106 pbc="F F F"
Ac       0.00000000       0.00000000       0.00000000       0.00000000       0.00000000      -7.15741777
Ac       0.00000000       0.00000000       1.82828283       0.00000000       0.00000000       7.15741777
2
Properties=species:S:1:pos:R:3:forces:R:3 energy=3.5366413821114526 pbc="F F F"
Ac       0.00000000       0.00000000       0.00000000       0.00000000       0.00000000      -5.03827429
Ac       0.00000000       0.00000000       1.88787879       0.00000000       0.00000000       5.03827429
2
Properties=species:S:1:pos:R:3:forces:R:3 energy=3.2783732966224166 pbc="F F F"
Ac       0.00000000       0.00000000       0.00000000       0.00000000       0.00000000      -3.79729915
Ac       0.00000000       0.00000000       1.94747475       0.00000000       0.00000000       3.79729915
2
Properties=species:S:1:pos:R:3:forces:R:3 energy=3.0647715684530668 pbc="F F F"
Ac       0.00000000       0.00000000       0.00000000       0.00000000       0.00000000      -3.51937771
Ac       0.00000000       0.00000000       2.00707071       0.00000000       0.00000000       3.51937771
2
Properties=species:S:1:pos:R:3:forces:R:3 energy=2.843021039054858 pbc="F F F"
Ac       0.00000000       0.00000000       0.00000000       0.00000000       0.00000000      -4.03912067
Ac       0.00000000       0.00000000       2.06666667       0.00000000       0.00000000       4.03912067
2
Properties=species:S:1:pos:R:3:forces:R:3 energy=2.572001445350046 pbc="F F F"
Ac       0.00000000       0.00000000       0.00000000       0.00000000       0.00000000      -5.12551451
Ac       0.00000000       0.00000000       2.12626263       0.00000000       0.00000000       5.12551451
2
Properties=species:S:1:pos:R:3:forces:R:3 energy=2.227485685354416 pbc="F F F"
Ac       0.00000000       0.00000000       0.00000000       0.00000000       0.00000000      -6.44294310
Ac       0.00000000       0.00000000       2.18585859       0.00000000       0.00000000       6.44294310
2
Properties=species:S:1:pos:R:3:forces:R:3 energy=1.8068589384837501 pbc="F F F"
Ac       0.00000000       0.00000000       0.00000000       0.00000000       0.00000000      -7.62259817
Ac       0.00000000       0.00000000       2.24545455       0.00000000       0.00000000       7.62259817
2
Properties=species:S:1:pos:R:3:forces:R:3 energy=1.3272249804718483 pbc="F F F"
Ac       0.00000000       0.00000000       0.00000000       0.00000000       0.00000000      -8.39109230
Ac       0.00000000       0.00000000       2.30505051       0.00000000       0.00000000       8.39109230
2
Properties=species:S:1:pos:R:3:forces:R:3 energy=0.8169807420498345 pbc="F F F"
Ac       0.00000000       0.00000000       0.00000000       0.00000000       0.00000000      -8.64777470
Ac       0.00000000       0.00000000       2.36464646       0.00000000       0.00000000       8.64777470
2
Properties=species:S:1:pos:R:3:forces:R:3 energy=0.3056996348871542 pbc="F F F"
Ac       0.00000000       0.00000000       0.00000000       0.00000000       0.00000000      -8.44233036
Ac       0.00000000       0.00000000       2.42424242       0.00000000       0.00000000       8.44233036
2
Properties=species:S:1:pos:R:3:forces:R:3 energy=-0.1824281324670739 pbc="F F F"
Ac       0.00000000       0.00000000       0.00000000       0.00000000       0.00000000      -7.89227295
Ac       0.00000000       0.00000000       2.48383838       0.00000000       0.00000000       7.89227295
2
Properties=species:S:1:pos:R:3:forces:R:3 energy=-0.6306106841297641 pbc="F F F"
Ac       0.00000000       0.00000000       0.00000000       0.00000000       0.00000000      -7.12111616
Ac       0.00000000       0.00000000       2.54343434       0.00000000       0.00000000       7.12111616
2
Properties=species:S:1:pos:R:3:forces:R:3 energy=-1.0289408472367472 pbc="F F F"
Ac       0.00000000       0.00000000       0.00000000       0.00000000       0.00000000      -6.23505020
Ac       0.00000000       0.00000000       2.60303030       0.00000000       0.00000000       6.23505020
2
Properties=species:S:1:pos:R:3:forces:R:3 energy=-1.3731302729567767 pbc="F F F"
Ac       0.00000000       0.00000000       0.00000000       0.00000000       0.00000000      -5.31546783
Ac       0.00000000       0.00000000       2.66262626       0.00000000       0.00000000       5.31546783
2
Properties=species:S:1:pos:R:3:forces:R:3 energy=-1.6629646033082388 pbc="F F F"
Ac       0.00000000       0.00000000       0.00000000       0.00000000       0.00000000      -4.41833067
Ac       0.00000000       0.00000000       2.72222222       0.00000000       0.00000000       4.41833067
2
Properties=species:S:1:pos:R:3:forces:R:3 energy=-1.90093979737417 pbc="F F F"
Ac       0.00000000       0.00000000       0.00000000       0.00000000       0.00000000      -3.58017063
Ac       0.00000000       0.00000000       2.78181818       0.00000000       0.00000000       3.58017063
2
Properties=species:S:1:pos:R:3:forces:R:3 energy=-2.0913384216990845 pbc="F F F"
Ac       0.00000000       0.00000000       0.00000000       0.00000000       0.00000000      -2.82466960
Ac       0.00000000       0.00000000       2.84141414       0.00000000       0.00000000       2.82466960
2
Properties=species:S:1:pos:R:3:forces:R:3 energy=-2.2395350811152057 pbc="F F F"
Ac       0.00000000       0.00000000       0.00000000       0.00000000       0.00000000      -2.16532755
Ac       0.00000000       0.00000000       2.90101010       0.00000000       0.00000000       2.16532755
2
Properties=species:S:1:pos:R:3:forces:R:3 energy=-2.351411671834642 pbc="F F F"
Ac       0.00000000       0.00000000       0.00000000       0.00000000       0.00000000      -1.60551071
Ac       0.00000000       0.00000000       2.96060606       0.00000000       0.00000000       1.60551071
2
Properties=species:S:1:pos:R:3:forces:R:3 energy=-2.4327811617575645 pbc="F F F"
Ac       0.00000000       0.00000000       0.00000000       0.00000000       0.00000000      -1.14031219
Ac       0.00000000       0.00000000       3.02020202       0.00000000       0.00000000       1.14031219
2
Properties=species:S:1:pos:R:3:forces:R:3 energy=-2.4890355504329706 pbc="F F F"
Ac       0.00000000       0.00000000       0.00000000       0.00000000       0.00000000      -0.76115215
Ac       0.00000000       0.00000000       3.07979798       0.00000000       0.00000000       0.76115215
2
Properties=species:S:1:pos:R:3:forces:R:3 energy=-2.5250556449695902 pbc="F F F"
Ac       0.00000000       0.00000000       0.00000000       0.00000000       0.00000000      -0.46016714
Ac       0.00000000       0.00000000       3.13939394       0.00000000       0.00000000       0.46016714
2
Properties=species:S:1:pos:R:3:forces:R:3 energy=-2.5453120181287328 pbc="F F F"
Ac       0.00000000       0.00000000       0.00000000       0.00000000       0.00000000      -0.23110782
Ac       0.00000000       0.00000000       3.19898990       0.00000000       0.00000000       0.23110782
2
Properties=species:S:1:pos:R:3:forces:R:3 energy=-2.553884652018599 pbc="F F F"
Ac       0.00000000       0.00000000       0.00000000       0.00000000       0.00000000      -0.06648858
Ac       0.00000000       0.00000000       3.25858586       0.00000000       0.00000000       0.06648858
2
Properties=species:S:1:pos:R:3:forces:R:3 energy=-2.5542803428047494 pbc="F F F"
Ac       0.00000000       0.00000000       0.00000000       0.00000000       0.00000000       0.04577942
Ac       0.00000000       0.00000000       3.31818182       0.00000000       0.00000000      -0.04577942
2
Properties=species:S:1:pos:R:3:forces:R:3 energy=-2.549126360514437 pbc="F F F"
Ac       0.00000000       0.00000000       0.00000000       0.00000000       0.00000000       0.12301664
Ac       0.00000000       0.00000000       3.37777778       0.00000000       0.00000000      -0.12301664
2
Properties=species:S:1:pos:R:3:forces:R:3 energy=-2.539925329394718 pbc="F F F"
Ac       0.00000000       0.00000000       0.00000000       0.00000000       0.00000000       0.18471891
Ac       0.00000000       0.00000000       3.43737374       0.00000000       0.00000000      -0.18471891
2
Properties=species:S:1:pos:R:3:forces:R:3 energy=-2.5270771727571093 pbc="F F F"
Ac       0.00000000       0.00000000       0.00000000       0.00000000       0.00000000       0.24779452
Ac       0.00000000       0.00000000       3.49696970       0.00000000       0.00000000      -0.24779452
2
Properties=species:S:1:pos:R:3:forces:R:3 energy=-2.5101487287125934 pbc="F F F"
Ac       0.00000000       0.00000000       0.00000000       0.00000000       0.00000000       0.32279813
Ac       0.00000000       0.00000000       3.55656566       0.00000000       0.00000000      -0.32279813
2
Properties=species:S:1:pos:R:3:forces:R:3 energy=-2.488304410153206 pbc="F F F"
Ac       0.00000000       0.00000000       0.00000000       0.00000000       0.00000000       0.41260153
Ac       0.00000000       0.00000000       3.61616162       0.00000000       0.00000000      -0.41260153
2
Properties=species:S:1:pos:R:3:forces:R:3 energy=-2.4607480173857854 pbc="F F F"
Ac       0.00000000       0.00000000       0.00000000       0.00000000       0.00000000       0.51337665
Ac       0.00000000       0.00000000       3.67575758       0.00000000       0.00000000      -0.51337665
2
Properties=species:S:1:pos:R:3:forces:R:3 energy=-2.4270556464961293 pbc="F F F"
Ac       0.00000000       0.00000000       0.00000000       0.00000000       0.00000000       0.61701930
Ac       0.00000000       0.00000000       3.73535354       0.00000000       0.00000000      -0.61701930
2
Properties=species:S:1:pos:R:3:forces:R:3 energy=-2.38733484125414 pbc="F F F"
Ac       0.00000000       0.00000000       0.00000000       0.00000000       0.00000000       0.71417373
Ac       0.00000000       0.00000000       3.79494949       0.00000000       0.00000000      -0.71417373
2
Properties=species:S:1:pos:R:3:forces:R:3 energy=-2.342220801423235 pbc="F F F"
Ac       0.00000000       0.00000000       0.00000000       0.00000000       0.00000000       0.79689974
Ac       0.00000000       0.00000000       3.85454545       0.00000000       0.00000000      -0.79689974
2
Properties=species:S:1:pos:R:3:forces:R:3 energy=-2.2927331208727852 pbc="F F F"
Ac       0.00000000       0.00000000       0.00000000       0.00000000       0.00000000       0.86048961
Ac       0.00000000       0.00000000       3.91414141       0.00000000       0.00000000      -0.86048961
2
Properties=species:S:1:pos:R:3:forces:R:3 energy=-2.24005868728696 pbc="F F F"
Ac       0.00000000       0.00000000       0.00000000       0.00000000       0.00000000       0.90395409
Ac       0.00000000       0.00000000       3.97373737       0.00000000       0.00000000      -0.90395409
2
Properties=species:S:1:pos:R:3:forces:R:3 energy=-2.185349140414087 pbc="F F F"
Ac       0.00000000       0.00000000       0.00000000       0.00000000       0.00000000       0.92932558
Ac       0.00000000       0.00000000       4.03333333       0.00000000       0.00000000      -0.92932558
2
Properties=species:S:1:pos:R:3:forces:R:3 energy=-2.129576915594126 pbc="F F F"
Ac       0.00000000       0.00000000       0.00000000       0.00000000       0.00000000       0.94028538
Ac       0.00000000       0.00000000       4.09292929       0.00000000       0.00000000      -0.94028538
2
Properties=species:S:1:pos:R:3:forces:R:3 energy=-2.0734795880276407 pbc="F F F"
Ac       0.00000000       0.00000000       0.00000000       0.00000000       0.00000000       0.94088906
Ac       0.00000000       0.00000000       4.15252525       0.00000000       0.00000000      -0.94088906
2
Properties=species:S:1:pos:R:3:forces:R:3 energy=-2.0175639564019123 pbc="F F F"
Ac       0.00000000       0.00000000       0.00000000       0.00000000       0.00000000       0.93477970
Ac       0.00000000       0.00000000       4.21212121       0.00000000       0.00000000      -0.93477970
2
Properties=species:S:1:pos:R:3:forces:R:3 energy=-1.9621345212398555 pbc="F F F"
Ac       0.00000000       0.00000000       0.00000000       0.00000000       0.00000000       0.92495835
Ac       0.00000000       0.00000000       4.27171717       0.00000000       0.00000000      -0.92495835
2
Properties=species:S:1:pos:R:3:forces:R:3 energy=-1.9073408058202765 pbc="F F F"
Ac       0.00000000       0.00000000       0.00000000       0.00000000       0.00000000       0.91388112
Ac       0.00000000       0.00000000       4.33131313       0.00000000       0.00000000      -0.91388112
2
Properties=species:S:1:pos:R:3:forces:R:3 energy=-1.8531917856696007 pbc="F F F"
Ac       0.00000000       0.00000000       0.00000000       0.00000000       0.00000000       0.90361005
Ac       0.00000000       0.00000000       4.39090909       0.00000000       0.00000000      -0.90361005
2
Properties=species:S:1:pos:R:3:forces:R:3 energy=-1.7995868346279063 pbc="F F F"
Ac       0.00000000       0.00000000       0.00000000       0.00000000       0.00000000       0.89585471
Ac       0.00000000       0.00000000       4.45050505       0.00000000       0.00000000      -0.89585471
2
Properties=species:S:1:pos:R:3:forces:R:3 energy=-1.7463384811519396 pbc="F F F"
Ac       0.00000000       0.00000000       0.00000000       0.00000000       0.00000000       0.89183182
Ac       0.00000000       0.00000000       4.51010101       0.00000000       0.00000000      -0.89183182
2
Properties=species:S:1:pos:R:3:forces:R:3 energy=-1.693202015400482 pbc="F F F"
Ac       0.00000000       0.00000000       0.00000000       0.00000000       0.00000000       0.89205879
Ac       0.00000000       0.00000000       4.56969697       0.00000000       0.00000000      -0.89205879
2
Properties=species:S:1:pos:R:3:forces:R:3 energy=-1.6399319460883466 pbc="F F F"
Ac       0.00000000       0.00000000       0.00000000       0.00000000       0.00000000       0.89626241
Ac       0.00000000       0.00000000       4.62929293       0.00000000       0.00000000      -0.89626241
2
Properties=species:S:1:pos:R:3:forces:R:3 energy=-1.5863163200904795 pbc="F F F"
Ac       0.00000000       0.00000000       0.00000000       0.00000000       0.00000000       0.90348625
Ac       0.00000000       0.00000000       4.68888889       0.00000000       0.00000000      -0.90348625
2
Properties=species:S:1:pos:R:3:forces:R:3 energy=-1.5322090028168525 pbc="F F F"
Ac       0.00000000       0.00000000       0.00000000       0.00000000       0.00000000       0.91245365
Ac       0.00000000       0.00000000       4.74848485       0.00000000       0.00000000      -0.91245365
2
Properties=species:S:1:pos:R:3:forces:R:3 energy=-1.4775446680726756 pbc="F F F"
Ac       0.00000000       0.00000000       0.00000000       0.00000000       0.00000000       0.92218322
Ac       0.00000000       0.00000000       4.80808081       0.00000000       0.00000000      -0.92218322
2
Properties=species:S:1:pos:R:3:forces:R:3 energy=-1.4222800785638032 pbc="F F F"
Ac       0.00000000       0.00000000       0.00000000       0.00000000       0.00000000       0.93256527
Ac       0.00000000       0.00000000       4.86767677       0.00000000       0.00000000      -0.93256527
2
Properties=species:S:1:pos:R:3:forces:R:3 energy=-1.3663545210838928 pbc="F F F"
Ac       0.00000000       0.00000000       0.00000000       0.00000000       0.00000000       0.94467241
Ac       0.00000000       0.00000000       4.92727273       0.00000000       0.00000000      -0.94467241
2
Properties=species:S:1:pos:R:3:forces:R:3 energy=-1.30961220760255 pbc="F F F"
Ac       0.00000000       0.00000000       0.00000000       0.00000000       0.00000000       0.96027285
Ac       0.00000000       0.00000000       4.98686869       0.00000000       0.00000000      -0.96027285
2
Properties=species:S:1:pos:R:3:forces:R:3 energy=-1.2518129672554763 pbc="F F F"
Ac       0.00000000       0.00000000       0.00000000       0.00000000       0.00000000       0.98033905
Ac       0.00000000       0.00000000       5.04646465       0.00000000       0.00000000      -0.98033905
2
Properties=species:S:1:pos:R:3:forces:R:3 energy=-1.1927246893967158 pbc="F F F"
Ac       0.00000000       0.00000000       0.00000000       0.00000000       0.00000000       1.00238347
Ac       0.00000000       0.00000000       5.10606061       0.00000000       0.00000000      -1.00238347
2
Properties=species:S:1:pos:R:3:forces:R:3 energy=-1.1324605361685258 pbc="F F F"
Ac       0.00000000       0.00000000       0.00000000       0.00000000       0.00000000       1.01735866
Ac       0.00000000       0.00000000       5.16565657       0.00000000       0.00000000      -1.01735866
2
Properties=species:S:1:pos:R:3:forces:R:3 energy=-1.0719321508776722 pbc="F F F"
Ac       0.00000000       0.00000000       0.00000000       0.00000000       0.00000000       1.00843382
Ac       0.00000000       0.00000000       5.22525253       0.00000000       0.00000000      -1.00843382
2
Properties=species:S:1:pos:R:3:forces:R:3 energy=-1.0130766071401558 pbc="F F F"
Ac       0.00000000       0.00000000       0.00000000       0.00000000       0.00000000       0.95973521
Ac       0.00000000       0.00000000       5.28484848       0.00000000       0.00000000      -0.95973521
2
Properties=species:S:1:pos:R:3:forces:R:3 energy=-0.9581206998312601 pbc="F F F"
Ac       0.00000000       0.00000000       0.00000000       0.00000000       0.00000000       0.88375974
Ac       0.00000000       0.00000000       5.34444444       0.00000000       0.00000000      -0.88375974
2
Properties=species:S:1:pos:R:3:forces:R:3 energy=-0.9070767333789387 pbc="F F F"
Ac       0.00000000       0.00000000       0.00000000       0.00000000       0.00000000       0.84027612
Ac       0.00000000       0.00000000       5.40404040       0.00000000       0.00000000      -0.84027612
2
Properties=species:S:1:pos:R:3:forces:R:3 energy=-0.8566425839847742 pbc="F F F"
Ac       0.00000000       0.00000000       0.00000000       0.00000000       0.00000000       0.85718590
Ac       0.00000000       0.00000000       5.46363636       0.00000000       0.00000000      -0.85718590
2
Properties=species:S:1:pos:R:3:forces:R:3 energy=-0.8055742771544537 pbc="F F F"
Ac       0.00000000       0.00000000       0.00000000       0.00000000       0.00000000       0.84312099
Ac       0.00000000       0.00000000       5.52323232       0.00000000       0.00000000      -0.84312099
2
Properties=species:S:1:pos:R:3:forces:R:3 energy=-0.7580039766997494 pbc="F F F"
Ac       0.00000000       0.00000000       0.00000000       0.00000000       0.00000000       0.74260283
Ac       0.00000000       0.00000000       5.58282828       0.00000000       0.00000000      -0.74260283
2
Properties=species:S:1:pos:R:3:forces:R:3 energy=-0.7170624780648222 pbc="F F F"
Ac       0.00000000       0.00000000       0.00000000       0.00000000       0.00000000       0.64303714
Ac       0.00000000       0.00000000       5.64242424       0.00000000       0.00000000      -0.64303714
2
Properties=species:S:1:pos:R:3:forces:R:3 energy=-0.6789699479903432 pbc="F F F"
Ac       0.00000000       0.00000000       0.00000000       0.00000000       0.00000000       0.65636677
Ac       0.00000000       0.00000000       5.70202020       0.00000000       0.00000000      -0.65636677
2
Properties=species:S:1:pos:R:3:forces:R:3 energy=-0.6376098988383833 pbc="F F F"
Ac       0.00000000       0.00000000       0.00000000       0.00000000       0.00000000       0.72497255
Ac       0.00000000       0.00000000       5.76161616       0.00000000       0.00000000      -0.72497255
2
Properties=species:S:1:pos:R:3:forces:R:3 energy=-0.5957267670818334 pbc="F F F"
Ac       0.00000000       0.00000000       0.00000000       0.00000000       0.00000000       0.64246309
Ac       0.00000000       0.00000000       5.82121212       0.00000000       0.00000000      -0.64246309
2
Properties=species:S:1:pos:R:3:forces:R:3 energy=-0.5647217756075922 pbc="F F F"
Ac       0.00000000       0.00000000       0.00000000       0.00000000       0.00000000       0.38566056
Ac       0.00000000       0.00000000       5.88080808       0.00000000       0.00000000      -0.38566056
2
Properties=species:S:1:pos:R:3:forces:R:3 energy=-0.5495543823620493 pbc="F F F"
Ac       0.00000000       0.00000000       0.00000000       0.00000000       0.00000000       0.13449800
Ac       0.00000000       0.00000000       5.94040404       0.00000000       0.00000000      -0.13449800
2
Properties=species:S:1:pos:R:3:forces:R:3 energy=-0.5455147294342102 pbc="F F F"
Ac       0.00000000       0.00000000       0.00000000       0.00000000       0.00000000       0.03497398
Ac       0.00000000       0.00000000       6.00000000       0.00000000       0.00000000      -0.03497398
