2
Properties=species:S:1:pos:R:3:forces:R:3 energy=7982.160220679897 pbc="F F F"
Ag       0.00000000       0.00000000       0.00000000       0.00000000       0.00000000 -131495.53125000
Ag       0.00000000       0.00000000       0.18000000       0.00000000       0.00000000  131495.53125000
2
Properties=species:S:1:pos:R:3:forces:R:3 energy=3300.416568336147 pbc="F F F"
Ag       0.00000000       0.00000000       0.00000000       0.00000000       0.00000000  -45493.32421875
Ag       0.00000000       0.00000000       0.23878788       0.00000000       0.00000000   45493.32421875
2
Properties=species:S:1:pos:R:3:forces:R:3 energy=1553.003238258022 pbc="F F F"
Ag       0.00000000       0.00000000       0.00000000       0.00000000       0.00000000  -18553.23828125
Ag       0.00000000       0.00000000       0.29757576       0.00000000       0.00000000   18553.23828125
2
Properties=species:S:1:pos:R:3:forces:R:3 energy=805.4879794721273 pbc="F F F"
Ag       0.00000000       0.00000000       0.00000000       0.00000000       0.00000000   -8385.41796875
Ag       0.00000000       0.00000000       0.35636364       0.00000000       0.00000000    8385.41796875
2
Properties=species:S:1:pos:R:3:forces:R:3 energy=456.2429233261193 pbc="F F F"
Ag       0.00000000       0.00000000       0.00000000       0.00000000       0.00000000   -4072.85107422
Ag       0.00000000       0.00000000       0.41515152       0.00000000       0.00000000    4072.85107422
2
Properties=species:S:1:pos:R:3:forces:R:3 energy=282.0307956564115 pbc="F F F"
Ag       0.00000000       0.00000000       0.00000000       0.00000000       0.00000000   -2098.28979492
Ag       0.00000000       0.00000000       0.47393939       0.00000000       0.00000000    2098.28979492
2
Properties=species:S:1:pos:R:3:forces:R:3 energy=189.97397195445316 pbc="F F F"
Ag       0.00000000       0.00000000       0.00000000       0.00000000       0.00000000   -1144.66979980
Ag       0.00000000       0.00000000       0.53272727       0.00000000       0.00000000    1144.66979980
2
Properties=species:S:1:pos:R:3:forces:R:3 energy=138.316379228533 pbc="F F F"
Ag       0.00000000       0.00000000       0.00000000       0.00000000       0.00000000    -666.03417969
Ag       0.00000000       0.00000000       0.59151515       0.00000000       0.00000000     666.03417969
2
Properties=species:S:1:pos:R:3:forces:R:3 energy=107.20476126890419 pbc="F F F"
Ag       0.00000000       0.00000000       0.00000000       0.00000000       0.00000000    -418.90350342
Ag       0.00000000       0.00000000       0.65030303       0.00000000       0.00000000     418.90350342
2
Properties=species:S:1:pos:R:3:forces:R:3 energy=86.82294071690613 pbc="F F F"
Ag       0.00000000       0.00000000       0.00000000       0.00000000       0.00000000    -287.89691162
Ag       0.00000000       0.00000000       0.70909091       0.00000000       0.00000000     287.89691162
2
Properties=species:S:1:pos:R:3:forces:R:3 energy=72.22243126975643 pbc="F F F"
Ag       0.00000000       0.00000000       0.00000000       0.00000000       0.00000000    -215.59431458
Ag       0.00000000       0.00000000       0.76787879       0.00000000       0.00000000     215.59431458
2
Properties=species:S:1:pos:R:3:forces:R:3 energy=60.9007915433798 pbc="F F F"
Ag       0.00000000       0.00000000       0.00000000       0.00000000       0.00000000    -172.96846008
Ag       0.00000000       0.00000000       0.82666667       0.00000000       0.00000000     172.96846008
2
Properties=species:S:1:pos:R:3:forces:R:3 energy=51.608528921023 pbc="F F F"
Ag       0.00000000       0.00000000       0.00000000       0.00000000       0.00000000    -144.82234192
Ag       0.00000000       0.00000000       0.88545455       0.00000000       0.00000000     144.82234192
2
Properties=species:S:1:pos:R:3:forces:R:3 energy=43.70588057178538 pbc="F F F"
Ag       0.00000000       0.00000000       0.00000000       0.00000000       0.00000000    -125.14657593
Ag       0.00000000       0.00000000       0.94424242       0.00000000       0.00000000     125.14657593
2
Properties=species:S:1:pos:R:3:forces:R:3 energy=36.849355942598336 pbc="F F F"
Ag       0.00000000       0.00000000       0.00000000       0.00000000       0.00000000    -107.75202942
Ag       0.00000000       0.00000000       1.00303030       0.00000000       0.00000000     107.75202942
2
Properties=species:S:1:pos:R:3:forces:R:3 energy=31.1132119969588 pbc="F F F"
Ag       0.00000000       0.00000000       0.00000000       0.00000000       0.00000000     -86.86253357
Ag       0.00000000       0.00000000       1.06181818       0.00000000       0.00000000      86.86253357
2
Properties=species:S:1:pos:R:3:forces:R:3 energy=26.629689096801176 pbc="F F F"
Ag       0.00000000       0.00000000       0.00000000       0.00000000       0.00000000     -66.41123199
Ag       0.00000000       0.00000000       1.12060606       0.00000000       0.00000000      66.41123199
2
Properties=species:S:1:pos:R:3:forces:R:3 energy=23.180472209480598 pbc="F F F"
Ag       0.00000000       0.00000000       0.00000000       0.00000000       0.00000000     -51.86871719
Ag       0.00000000       0.00000000       1.17939394       0.00000000       0.00000000      51.86871719
2
Properties=species:S:1:pos:R:3:forces:R:3 energy=20.467645027181682 pbc="F F F"
Ag       0.00000000       0.00000000       0.00000000       0.00000000       0.00000000     -40.88597870
Ag       0.00000000       0.00000000       1.23818182       0.00000000       0.00000000      40.88597870
2
Properties=species:S:1:pos:R:3:forces:R:3 energy=18.262245732037233 pbc="F F F"
Ag       0.00000000       0.00000000       0.00000000       0.00000000       0.00000000     -35.44930649
Ag       0.00000000       0.00000000       1.29696970       0.00000000       0.00000000      35.44930649
2
Properties=species:S:1:pos:R:3:forces:R:3 energy=16.15010515824363 pbc="F F F"
Ag       0.00000000       0.00000000       0.00000000       0.00000000       0.00000000     -37.58885193
Ag       0.00000000       0.00000000       1.35575758       0.00000000       0.00000000      37.58885193
2
Properties=species:S:1:pos:R:3:forces:R:3 energy=13.761699468452433 pbc="F F F"
Ag       0.00000000       0.00000000       0.00000000       0.00000000       0.00000000     -43.36359024
Ag       0.00000000       0.00000000       1.41454545       0.00000000       0.00000000      43.36359024
2
Properties=species:S:1:pos:R:3:forces:R:3 energy=11.213171135185656 pbc="F F F"
Ag       0.00000000       0.00000000       0.00000000       0.00000000       0.00000000     -41.52723694
Ag       0.00000000       0.00000000       1.47333333       0.00000000       0.00000000      41.52723694
2
Properties=species:S:1:pos:R:3:forces:R:3 energy=9.006123509884548 pbc="F F F"
Ag       0.00000000       0.00000000       0.00000000       0.00000000       0.00000000     -33.48425674
Ag       0.00000000       0.00000000       1.53212121       0.00000000       0.00000000      33.48425674
2
Properties=species:S:1:pos:R:3:forces:R:3 energy=7.222656286856328 pbc="F F F"
Ag       0.00000000       0.00000000       0.00000000       0.00000000       0.00000000     -27.72497177
Ag       0.00000000       0.00000000       1.59090909       0.00000000       0.00000000      27.72497177
2
Properties=species:S:1:pos:R:3:forces:R:3 energy=5.708041351248103 pbc="F F F"
Ag       0.00000000       0.00000000       0.00000000       0.00000000       0.00000000     -23.94664955
Ag       0.00000000       0.00000000       1.64969697       0.00000000       0.00000000      23.94664955
2
Properties=species:S:1:pos:R:3:forces:R:3 energy=4.39834756419663 pbc="F F F"
Ag       0.00000000       0.00000000       0.00000000       0.00000000       0.00000000     -20.66879654
Ag       0.00000000       0.00000000       1.70848485       0.00000000       0.00000000      20.66879654
2
Properties=species:S:1:pos:R:3:forces:R:3 energy=3.269520292217226 pbc="F F F"
Ag       0.00000000       0.00000000       0.00000000       0.00000000       0.00000000     -17.81540489
Ag       0.00000000       0.00000000       1.76727273       0.00000000       0.00000000      17.81540489
2
Properties=species:S:1:pos:R:3:forces:R:3 energy=2.2943473400165644 pbc="F F F"
Ag       0.00000000       0.00000000       0.00000000       0.00000000       0.00000000     -15.43238068
Ag       0.00000000       0.00000000       1.82606061       0.00000000       0.00000000      15.43238068
2
Properties=species:S:1:pos:R:3:forces:R:3 energy=1.448101452116761 pbc="F F F"
Ag       0.00000000       0.00000000       0.00000000       0.00000000       0.00000000     -13.40328789
Ag       0.00000000       0.00000000       1.88484848       0.00000000       0.00000000      13.40328789
2
Properties=species:S:1:pos:R:3:forces:R:3 energy=0.7144534734197132 pbc="F F F"
Ag       0.00000000       0.00000000       0.00000000       0.00000000       0.00000000     -11.57999802
Ag       0.00000000       0.00000000       1.94363636       0.00000000       0.00000000      11.57999802
2
Properties=species:S:1:pos:R:3:forces:R:3 energy=0.08442473480270882 pbc="F F F"
Ag       0.00000000       0.00000000       0.00000000       0.00000000       0.00000000      -9.86876011
Ag       0.00000000       0.00000000       2.00242424       0.00000000       0.00000000       9.86876011
2
Properties=species:S:1:pos:R:3:forces:R:3 energy=-0.4475788458758613 pbc="F F F"
Ag       0.00000000       0.00000000       0.00000000       0.00000000       0.00000000      -8.24617863
Ag       0.00000000       0.00000000       2.06121212       0.00000000       0.00000000       8.24617863
2
Properties=species:S:1:pos:R:3:forces:R:3 energy=-0.8872933290214611 pbc="F F F"
Ag       0.00000000       0.00000000       0.00000000       0.00000000       0.00000000      -6.73446703
Ag       0.00000000       0.00000000       2.12000000       0.00000000       0.00000000       6.73446703
2
Properties=species:S:1:pos:R:3:forces:R:3 energy=-1.2421714268229516 pbc="F F F"
Ag       0.00000000       0.00000000       0.00000000       0.00000000       0.00000000      -5.36401606
Ag       0.00000000       0.00000000       2.17878788       0.00000000       0.00000000       5.36401606
2
Properties=species:S:1:pos:R:3:forces:R:3 energy=-1.5210322275141068 pbc="F F F"
Ag       0.00000000       0.00000000       0.00000000       0.00000000       0.00000000      -4.14906836
Ag       0.00000000       0.00000000       2.23757576       0.00000000       0.00000000       4.14906836
2
Properties=species:S:1:pos:R:3:forces:R:3 energy=-1.732997313484912 pbc="F F F"
Ag       0.00000000       0.00000000       0.00000000       0.00000000       0.00000000      -3.08693433
Ag       0.00000000       0.00000000       2.29636364       0.00000000       0.00000000       3.08693433
2
Properties=species:S:1:pos:R:3:forces:R:3 energy=-1.8868248026733203 pbc="F F F"
Ag       0.00000000       0.00000000       0.00000000       0.00000000       0.00000000      -2.17014766
Ag       0.00000000       0.00000000       2.35515152       0.00000000       0.00000000       2.17014766
2
Properties=species:S:1:pos:R:3:forces:R:3 energy=-1.9909100649889422 pbc="F F F"
Ag       0.00000000       0.00000000       0.00000000       0.00000000       0.00000000      -1.39405417
Ag       0.00000000       0.00000000       2.41393939       0.00000000       0.00000000       1.39405417
2
Properties=species:S:1:pos:R:3:forces:R:3 energy=-2.0534188279084353 pbc="F F F"
Ag       0.00000000       0.00000000       0.00000000       0.00000000       0.00000000      -0.75486577
Ag       0.00000000       0.00000000       2.47272727       0.00000000       0.00000000       0.75486577
2
Properties=species:S:1:pos:R:3:forces:R:3 energy=-2.0821949808494185 pbc="F F F"
Ag       0.00000000       0.00000000       0.00000000       0.00000000       0.00000000      -0.24463591
Ag       0.00000000       0.00000000       2.53151515       0.00000000       0.00000000       0.24463591
2
Properties=species:S:1:pos:R:3:forces:R:3 energy=-2.08444042154456 pbc="F F F"
Ag       0.00000000       0.00000000       0.00000000       0.00000000       0.00000000       0.15045542
Ag       0.00000000       0.00000000       2.59030303       0.00000000       0.00000000      -0.15045542
2
Properties=species:S:1:pos:R:3:forces:R:3 energy=-2.066412131254076 pbc="F F F"
Ag       0.00000000       0.00000000       0.00000000       0.00000000       0.00000000       0.44825557
Ag       0.00000000       0.00000000       2.64909091       0.00000000       0.00000000      -0.44825557
2
Properties=species:S:1:pos:R:3:forces:R:3 energy=-2.033272291379635 pbc="F F F"
Ag       0.00000000       0.00000000       0.00000000       0.00000000       0.00000000       0.66761994
Ag       0.00000000       0.00000000       2.70787879       0.00000000       0.00000000      -0.66761994
2
Properties=species:S:1:pos:R:3:forces:R:3 energy=-1.9891123516471123 pbc="F F F"
Ag       0.00000000       0.00000000       0.00000000       0.00000000       0.00000000       0.82581431
Ag       0.00000000       0.00000000       2.76666667       0.00000000       0.00000000      -0.82581431
2
Properties=species:S:1:pos:R:3:forces:R:3 energy=-1.9370973353300809 pbc="F F F"
Ag       0.00000000       0.00000000       0.00000000       0.00000000       0.00000000       0.93687344
Ag       0.00000000       0.00000000       2.82545455       0.00000000       0.00000000      -0.93687344
2
Properties=species:S:1:pos:R:3:forces:R:3 energy=-1.879679882276387 pbc="F F F"
Ag       0.00000000       0.00000000       0.00000000       0.00000000       0.00000000       1.01102912
Ag       0.00000000       0.00000000       2.88424242       0.00000000       0.00000000      -1.01102912
2
Properties=species:S:1:pos:R:3:forces:R:3 energy=-1.8188017766360023 pbc="F F F"
Ag       0.00000000       0.00000000       0.00000000       0.00000000       0.00000000       1.05577838
Ag       0.00000000       0.00000000       2.94303030       0.00000000       0.00000000      -1.05577838
2
Properties=species:S:1:pos:R:3:forces:R:3 energy=-1.7559688222801102 pbc="F F F"
Ag       0.00000000       0.00000000       0.00000000       0.00000000       0.00000000       1.07913446
Ag       0.00000000       0.00000000       3.00181818       0.00000000       0.00000000      -1.07913446
2
Properties=species:S:1:pos:R:3:forces:R:3 energy=-1.692121110532666 pbc="F F F"
Ag       0.00000000       0.00000000       0.00000000       0.00000000       0.00000000       1.09228182
Ag       0.00000000       0.00000000       3.06060606       0.00000000       0.00000000      -1.09228182
2
Properties=species:S:1:pos:R:3:forces:R:3 energy=-1.6275459930159561 pbc="F F F"
Ag       0.00000000       0.00000000       0.00000000       0.00000000       0.00000000       1.10491586
Ag       0.00000000       0.00000000       3.11939394       0.00000000       0.00000000      -1.10491586
2
Properties=species:S:1:pos:R:3:forces:R:3 energy=-1.5621971340877674 pbc="F F F"
Ag       0.00000000       0.00000000       0.00000000       0.00000000       0.00000000       1.11802411
Ag       0.00000000       0.00000000       3.17818182       0.00000000       0.00000000      -1.11802411
2
Properties=species:S:1:pos:R:3:forces:R:3 energy=-1.4961728444588074 pbc="F F F"
Ag       0.00000000       0.00000000       0.00000000       0.00000000       0.00000000       1.12714422
Ag       0.00000000       0.00000000       3.23696970       0.00000000       0.00000000      -1.12714422
2
Properties=species:S:1:pos:R:3:forces:R:3 energy=-1.4298178429241033 pbc="F F F"
Ag       0.00000000       0.00000000       0.00000000       0.00000000       0.00000000       1.12890673
Ag       0.00000000       0.00000000       3.29575758       0.00000000       0.00000000      -1.12890673
2
Properties=species:S:1:pos:R:3:forces:R:3 energy=-1.3636191859333795 pbc="F F F"
Ag       0.00000000       0.00000000       0.00000000       0.00000000       0.00000000       1.12157118
Ag       0.00000000       0.00000000       3.35454545       0.00000000       0.00000000      -1.12157118
2
Properties=species:S:1:pos:R:3:forces:R:3 energy=-1.2981570621316951 pbc="F F F"
Ag       0.00000000       0.00000000       0.00000000       0.00000000       0.00000000       1.10355961
Ag       0.00000000       0.00000000       3.41333333       0.00000000       0.00000000      -1.10355961
2
Properties=species:S:1:pos:R:3:forces:R:3 energy=-1.2341038772695616 pbc="F F F"
Ag       0.00000000       0.00000000       0.00000000       0.00000000       0.00000000       1.07344842
Ag       0.00000000       0.00000000       3.47212121       0.00000000       0.00000000      -1.07344842
2
Properties=species:S:1:pos:R:3:forces:R:3 energy=-1.172191092902799 pbc="F F F"
Ag       0.00000000       0.00000000       0.00000000       0.00000000       0.00000000       1.03089845
Ag       0.00000000       0.00000000       3.53090909       0.00000000       0.00000000      -1.03089845
2
Properties=species:S:1:pos:R:3:forces:R:3 energy=-1.113112678645525 pbc="F F F"
Ag       0.00000000       0.00000000       0.00000000       0.00000000       0.00000000       0.97734988
Ag       0.00000000       0.00000000       3.58969697       0.00000000       0.00000000      -0.97734988
2
Properties=species:S:1:pos:R:3:forces:R:3 energy=-1.0574316743435743 pbc="F F F"
Ag       0.00000000       0.00000000       0.00000000       0.00000000       0.00000000       0.91595548
Ag       0.00000000       0.00000000       3.64848485       0.00000000       0.00000000      -0.91595548
2
Properties=species:S:1:pos:R:3:forces:R:3 energy=-1.0054923991534264 pbc="F F F"
Ag       0.00000000       0.00000000       0.00000000       0.00000000       0.00000000       0.85080463
Ag       0.00000000       0.00000000       3.70727273       0.00000000       0.00000000      -0.85080463
2
Properties=species:S:1:pos:R:3:forces:R:3 energy=-0.9573916247655228 pbc="F F F"
Ag       0.00000000       0.00000000       0.00000000       0.00000000       0.00000000       0.78593159
Ag       0.00000000       0.00000000       3.76606061       0.00000000       0.00000000      -0.78593159
2
Properties=species:S:1:pos:R:3:forces:R:3 energy=-0.9130170195845644 pbc="F F F"
Ag       0.00000000       0.00000000       0.00000000       0.00000000       0.00000000       0.72452021
Ag       0.00000000       0.00000000       3.82484848       0.00000000       0.00000000      -0.72452021
2
Properties=species:S:1:pos:R:3:forces:R:3 energy=-0.8720992128549596 pbc="F F F"
Ag       0.00000000       0.00000000       0.00000000       0.00000000       0.00000000       0.66850513
Ag       0.00000000       0.00000000       3.88363636       0.00000000       0.00000000      -0.66850513
2
Properties=species:S:1:pos:R:3:forces:R:3 energy=-0.8342964129216704 pbc="F F F"
Ag       0.00000000       0.00000000       0.00000000       0.00000000       0.00000000       0.61860621
Ag       0.00000000       0.00000000       3.94242424       0.00000000       0.00000000      -0.61860621
2
Properties=species:S:1:pos:R:3:forces:R:3 energy=-0.7992514662183596 pbc="F F F"
Ag       0.00000000       0.00000000       0.00000000       0.00000000       0.00000000       0.57457352
Ag       0.00000000       0.00000000       4.00121212       0.00000000       0.00000000      -0.57457352
2
Properties=species:S:1:pos:R:3:forces:R:3 energy=-0.7666427372113317 pbc="F F F"
Ag       0.00000000       0.00000000       0.00000000       0.00000000       0.00000000       0.53552788
Ag       0.00000000       0.00000000       4.06000000       0.00000000       0.00000000      -0.53552788
2
Properties=species:S:1:pos:R:3:forces:R:3 energy=-0.7362119348491527 pbc="F F F"
Ag       0.00000000       0.00000000       0.00000000       0.00000000       0.00000000       0.50027508
Ag       0.00000000       0.00000000       4.11878788       0.00000000       0.00000000      -0.50027508
2
Properties=species:S:1:pos:R:3:forces:R:3 energy=-0.7077725686706701 pbc="F F F"
Ag       0.00000000       0.00000000       0.00000000       0.00000000       0.00000000       0.46756941
Ag       0.00000000       0.00000000       4.17757576       0.00000000       0.00000000      -0.46756941
2
Properties=species:S:1:pos:R:3:forces:R:3 energy=-0.6812078317961419 pbc="F F F"
Ag       0.00000000       0.00000000       0.00000000       0.00000000       0.00000000       0.43634188
Ag       0.00000000       0.00000000       4.23636364       0.00000000       0.00000000      -0.43634188
2
Properties=species:S:1:pos:R:3:forces:R:3 energy=-0.6564540351717635 pbc="F F F"
Ag       0.00000000       0.00000000       0.00000000       0.00000000       0.00000000       0.40587774
Ag       0.00000000       0.00000000       4.29515152       0.00000000       0.00000000      -0.40587774
2
Properties=species:S:1:pos:R:3:forces:R:3 energy=-0.6334766801805597 pbc="F F F"
Ag       0.00000000       0.00000000       0.00000000       0.00000000       0.00000000       0.37595037
Ag       0.00000000       0.00000000       4.35393939       0.00000000       0.00000000      -0.37595037
2
Properties=species:S:1:pos:R:3:forces:R:3 energy=-0.6122367042384264 pbc="F F F"
Ag       0.00000000       0.00000000       0.00000000       0.00000000       0.00000000       0.34682482
Ag       0.00000000       0.00000000       4.41272727       0.00000000       0.00000000      -0.34682482
2
Properties=species:S:1:pos:R:3:forces:R:3 energy=-0.5926693338165245 pbc="F F F"
Ag       0.00000000       0.00000000       0.00000000       0.00000000       0.00000000       0.31917113
Ag       0.00000000       0.00000000       4.47151515       0.00000000       0.00000000      -0.31917113
2
Properties=species:S:1:pos:R:3:forces:R:3 energy=-0.574664677501708 pbc="F F F"
Ag       0.00000000       0.00000000       0.00000000       0.00000000       0.00000000       0.29379907
Ag       0.00000000       0.00000000       4.53030303       0.00000000       0.00000000      -0.29379907
2
Properties=species:S:1:pos:R:3:forces:R:3 energy=-0.558068345633621 pbc="F F F"
Ag       0.00000000       0.00000000       0.00000000       0.00000000       0.00000000       0.27134871
Ag       0.00000000       0.00000000       4.58909091       0.00000000       0.00000000      -0.27134871
2
Properties=species:S:1:pos:R:3:forces:R:3 energy=-0.5426996608155988 pbc="F F F"
Ag       0.00000000       0.00000000       0.00000000       0.00000000       0.00000000       0.25201043
Ag       0.00000000       0.00000000       4.64787879       0.00000000       0.00000000      -0.25201043
2
Properties=species:S:1:pos:R:3:forces:R:3 energy=-0.5283847727545875 pbc="F F F"
Ag       0.00000000       0.00000000       0.00000000       0.00000000       0.00000000       0.23535210
Ag       0.00000000       0.00000000       4.70666667       0.00000000       0.00000000      -0.23535210
2
Properties=species:S:1:pos:R:3:forces:R:3 energy=-0.5149941737573311 pbc="F F F"
Ag       0.00000000       0.00000000       0.00000000       0.00000000       0.00000000       0.22039694
Ag       0.00000000       0.00000000       4.76545455       0.00000000       0.00000000      -0.22039694
2
Properties=species:S:1:pos:R:3:forces:R:3 energy=-0.5024627169715268 pbc="F F F"
Ag       0.00000000       0.00000000       0.00000000       0.00000000       0.00000000       0.20588547
Ag       0.00000000       0.00000000       4.82424242       0.00000000       0.00000000      -0.20588547
2
Properties=species:S:1:pos:R:3:forces:R:3 energy=-0.4908011105787994 pbc="F F F"
Ag       0.00000000       0.00000000       0.00000000       0.00000000       0.00000000       0.19070202
Ag       0.00000000       0.00000000       4.88303030       0.00000000       0.00000000      -0.19070202
2
Properties=species:S:1:pos:R:3:forces:R:3 energy=-0.48006596300089205 pbc="F F F"
Ag       0.00000000       0.00000000       0.00000000       0.00000000       0.00000000       0.17427684
Ag       0.00000000       0.00000000       4.94181818       0.00000000       0.00000000      -0.17427684
2
Properties=species:S:1:pos:R:3:forces:R:3 energy=-0.470329946899187 pbc="F F F"
Ag       0.00000000       0.00000000       0.00000000       0.00000000       0.00000000       0.15682355
Ag       0.00000000       0.00000000       5.00060606       0.00000000       0.00000000      -0.15682355
2
Properties=species:S:1:pos:R:3:forces:R:3 energy=-0.46162943707824605 pbc="F F F"
Ag       0.00000000       0.00000000       0.00000000       0.00000000       0.00000000       0.13924584
Ag       0.00000000       0.00000000       5.05939394       0.00000000       0.00000000      -0.13924584
2
Properties=species:S:1:pos:R:3:forces:R:3 energy=-0.45393758948522833 pbc="F F F"
Ag       0.00000000       0.00000000       0.00000000       0.00000000       0.00000000       0.12269551
Ag       0.00000000       0.00000000       5.11818182       0.00000000       0.00000000      -0.12269551
2
Properties=species:S:1:pos:R:3:forces:R:3 energy=-0.44716772212758465 pbc="F F F"
Ag       0.00000000       0.00000000       0.00000000       0.00000000       0.00000000       0.10795957
Ag       0.00000000       0.00000000       5.17696970       0.00000000       0.00000000      -0.10795957
2
Properties=species:S:1:pos:R:3:forces:R:3 energy=-0.44121027241269334 pbc="F F F"
Ag       0.00000000       0.00000000       0.00000000       0.00000000       0.00000000       0.09496342
Ag       0.00000000       0.00000000       5.23575758       0.00000000       0.00000000      -0.09496342
2
Properties=species:S:1:pos:R:3:forces:R:3 energy=-0.43598289168397186 pbc="F F F"
Ag       0.00000000       0.00000000       0.00000000       0.00000000       0.00000000       0.08300786
Ag       0.00000000       0.00000000       5.29454545       0.00000000       0.00000000      -0.08300786
2
Properties=species:S:1:pos:R:3:forces:R:3 energy=-0.4314258441598927 pbc="F F F"
Ag       0.00000000       0.00000000       0.00000000       0.00000000       0.00000000       0.07243042
Ag       0.00000000       0.00000000       5.35333333       0.00000000       0.00000000      -0.07243042
2
Properties=species:S:1:pos:R:3:forces:R:3 energy=-0.4273734397152025 pbc="F F F"
Ag       0.00000000       0.00000000       0.00000000       0.00000000       0.00000000       0.06658189
Ag       0.00000000       0.00000000       5.41212121       0.00000000       0.00000000      -0.06658189
2
Properties=species:S:1:pos:R:3:forces:R:3 energy=-0.42346964695918504 pbc="F F F"
Ag       0.00000000       0.00000000       0.00000000       0.00000000       0.00000000       0.06673571
Ag       0.00000000       0.00000000       5.47090909       0.00000000       0.00000000      -0.06673571
2
Properties=species:S:1:pos:R:3:forces:R:3 energy=-0.4195975632082334 pbc="F F F"
Ag       0.00000000       0.00000000       0.00000000       0.00000000       0.00000000       0.06344393
Ag       0.00000000       0.00000000       5.52969697       0.00000000       0.00000000      -0.06344393
2
Properties=species:S:1:pos:R:3:forces:R:3 energy=-0.4161983212181648 pbc="F F F"
Ag       0.00000000       0.00000000       0.00000000       0.00000000       0.00000000       0.05118571
Ag       0.00000000       0.00000000       5.58848485       0.00000000       0.00000000      -0.05118571
2
Properties=species:S:1:pos:R:3:forces:R:3 energy=-0.41357582246972424 pbc="F F F"
Ag       0.00000000       0.00000000       0.00000000       0.00000000       0.00000000       0.03910818
Ag       0.00000000       0.00000000       5.64727273       0.00000000       0.00000000      -0.03910818
2
Properties=species:S:1:pos:R:3:forces:R:3 energy=-0.41140210823189516 pbc="F F F"
Ag       0.00000000       0.00000000       0.00000000       0.00000000       0.00000000       0.03661982
Ag       0.00000000       0.00000000       5.70606061       0.00000000       0.00000000      -0.03661982
2
Properties=species:S:1:pos:R:3:forces:R:3 energy=-0.4091703657415904 pbc="F F F"
Ag       0.00000000       0.00000000       0.00000000       0.00000000       0.00000000       0.03866814
Ag       0.00000000       0.00000000       5.76484848       0.00000000       0.00000000      -0.03866814
2
Properties=species:S:1:pos:R:3:forces:R:3 energy=-0.40703387812605357 pbc="F F F"
Ag       0.00000000       0.00000000       0.00000000       0.00000000       0.00000000       0.03238505
Ag       0.00000000       0.00000000       5.82363636       0.00000000       0.00000000      -0.03238505
2
Properties=species:S:1:pos:R:3:forces:R:3 energy=-0.4054847940893326 pbc="F F F"
Ag       0.00000000       0.00000000       0.00000000       0.00000000       0.00000000       0.02027445
Ag       0.00000000       0.00000000       5.88242424       0.00000000       0.00000000      -0.02027445
2
Properties=species:S:1:pos:R:3:forces:R:3 energy=-0.4045927983685394 pbc="F F F"
Ag       0.00000000       0.00000000       0.00000000       0.00000000       0.00000000       0.01082912
Ag       0.00000000       0.00000000       5.94121212       0.00000000       0.00000000      -0.01082912
2
Properties=species:S:1:pos:R:3:forces:R:3 energy=-0.40409553831561884 pbc="F F F"
Ag       0.00000000       0.00000000       0.00000000       0.00000000       0.00000000       0.00717060
Ag       0.00000000       0.00000000       6.00000000       0.00000000       0.00000000      -0.00717060
