2
Properties=species:S:1:pos:R:3:forces:R:3 energy=1262.3192066836014 pbc="F F F"
Al       0.00000000       0.00000000       0.00000000       0.00000000       0.00000000  -17299.95703125
Al       0.00000000       0.00000000       0.18000000       0.00000000       0.00000000   17299.95703125
2
Properties=species:S:1:pos:R:3:forces:R:3 energy=615.2125172304762 pbc="F F F"
Al       0.00000000       0.00000000       0.00000000       0.00000000       0.00000000   -6707.50781250
Al       0.00000000       0.00000000       0.23878788       0.00000000       0.00000000    6707.50781250
2
Properties=species:S:1:pos:R:3:forces:R:3 energy=345.7786488222731 pbc="F F F"
Al       0.00000000       0.00000000       0.00000000       0.00000000       0.00000000   -3035.30444336
Al       0.00000000       0.00000000       0.29757576       0.00000000       0.00000000    3035.30444336
2
Properties=species:S:1:pos:R:3:forces:R:3 energy=217.59885452342098 pbc="F F F"
Al       0.00000000       0.00000000       0.00000000       0.00000000       0.00000000   -1529.31677246
Al       0.00000000       0.00000000       0.35636364       0.00000000       0.00000000    1529.31677246
2
Properties=species:S:1:pos:R:3:forces:R:3 energy=150.52106521678036 pbc="F F F"
Al       0.00000000       0.00000000       0.00000000       0.00000000       0.00000000    -836.13183594
Al       0.00000000       0.00000000       0.41515152       0.00000000       0.00000000     836.13183594
2
Properties=species:S:1:pos:R:3:forces:R:3 energy=112.61682177288465 pbc="F F F"
Al       0.00000000       0.00000000       0.00000000       0.00000000       0.00000000    -491.58190918
Al       0.00000000       0.00000000       0.47393939       0.00000000       0.00000000     491.58190918
2
Properties=species:S:1:pos:R:3:forces:R:3 energy=89.5370564910743 pbc="F F F"
Al       0.00000000       0.00000000       0.00000000       0.00000000       0.00000000    -312.64785767
Al       0.00000000       0.00000000       0.53272727       0.00000000       0.00000000     312.64785767
2
Properties=species:S:1:pos:R:3:forces:R:3 energy=74.21831570970417 pbc="F F F"
Al       0.00000000       0.00000000       0.00000000       0.00000000       0.00000000    -218.59954834
Al       0.00000000       0.00000000       0.59151515       0.00000000       0.00000000     218.59954834
2
Properties=species:S:1:pos:R:3:forces:R:3 energy=62.94685050956082 pbc="F F F"
Al       0.00000000       0.00000000       0.00000000       0.00000000       0.00000000    -170.46591187
Al       0.00000000       0.00000000       0.65030303       0.00000000       0.00000000     170.46591187
2
Properties=species:S:1:pos:R:3:forces:R:3 energy=53.69369210495163 pbc="F F F"
Al       0.00000000       0.00000000       0.00000000       0.00000000       0.00000000    -147.03491211
Al       0.00000000       0.00000000       0.70909091       0.00000000       0.00000000     147.03491211
2
Properties=species:S:1:pos:R:3:forces:R:3 energy=45.451462896707476 pbc="F F F"
Al       0.00000000       0.00000000       0.00000000       0.00000000       0.00000000    -134.30940247
Al       0.00000000       0.00000000       0.76787879       0.00000000       0.00000000     134.30940247
2
Properties=species:S:1:pos:R:3:forces:R:3 energy=37.91434625978032 pbc="F F F"
Al       0.00000000       0.00000000       0.00000000       0.00000000       0.00000000    -121.35977936
Al       0.00000000       0.00000000       0.82666667       0.00000000       0.00000000     121.35977936
2
Properties=species:S:1:pos:R:3:forces:R:3 energy=31.28063592443274 pbc="F F F"
Al       0.00000000       0.00000000       0.00000000       0.00000000       0.00000000    -103.41858673
Al       0.00000000       0.00000000       0.88545455       0.00000000       0.00000000     103.41858673
2
Properties=species:S:1:pos:R:3:forces:R:3 energy=25.833903190971675 pbc="F F F"
Al       0.00000000       0.00000000       0.00000000       0.00000000       0.00000000     -82.00751495
Al       0.00000000       0.00000000       0.94424242       0.00000000       0.00000000      82.00751495
2
Properties=species:S:1:pos:R:3:forces:R:3 energy=21.534379910095076 pbc="F F F"
Al       0.00000000       0.00000000       0.00000000       0.00000000       0.00000000     -65.33300018
Al       0.00000000       0.00000000       1.00303030       0.00000000       0.00000000      65.33300018
2
Properties=species:S:1:pos:R:3:forces:R:3 energy=18.022191413481938 pbc="F F F"
Al       0.00000000       0.00000000       0.00000000       0.00000000       0.00000000     -55.64278793
Al       0.00000000       0.00000000       1.06181818       0.00000000       0.00000000      55.64278793
2
Properties=species:S:1:pos:R:3:forces:R:3 energy=14.848885819324254 pbc="F F F"
Al       0.00000000       0.00000000       0.00000000       0.00000000       0.00000000     -52.36418152
Al       0.00000000       0.00000000       1.12060606       0.00000000       0.00000000      52.36418152
2
Properties=species:S:1:pos:R:3:forces:R:3 energy=11.978076758131099 pbc="F F F"
Al       0.00000000       0.00000000       0.00000000       0.00000000       0.00000000     -44.18867493
Al       0.00000000       0.00000000       1.17939394       0.00000000       0.00000000      44.18867493
2
Properties=species:S:1:pos:R:3:forces:R:3 energy=9.728366912230397 pbc="F F F"
Al       0.00000000       0.00000000       0.00000000       0.00000000       0.00000000     -32.10916901
Al       0.00000000       0.00000000       1.23818182       0.00000000       0.00000000      32.10916901
2
Properties=species:S:1:pos:R:3:forces:R:3 energy=8.182489600645777 pbc="F F F"
Al       0.00000000       0.00000000       0.00000000       0.00000000       0.00000000     -21.15537453
Al       0.00000000       0.00000000       1.29696970       0.00000000       0.00000000      21.15537453
2
Properties=species:S:1:pos:R:3:forces:R:3 energy=7.125987978381871 pbc="F F F"
Al       0.00000000       0.00000000       0.00000000       0.00000000       0.00000000     -15.78642464
Al       0.00000000       0.00000000       1.35575758       0.00000000       0.00000000      15.78642464
2
Properties=species:S:1:pos:R:3:forces:R:3 energy=6.2409420465376435 pbc="F F F"
Al       0.00000000       0.00000000       0.00000000       0.00000000       0.00000000     -14.73340607
Al       0.00000000       0.00000000       1.41454545       0.00000000       0.00000000      14.73340607
2
Properties=species:S:1:pos:R:3:forces:R:3 energy=5.37439605596338 pbc="F F F"
Al       0.00000000       0.00000000       0.00000000       0.00000000       0.00000000     -14.74556160
Al       0.00000000       0.00000000       1.47333333       0.00000000       0.00000000      14.74556160
2
Properties=species:S:1:pos:R:3:forces:R:3 energy=4.514703550509605 pbc="F F F"
Al       0.00000000       0.00000000       0.00000000       0.00000000       0.00000000     -14.42186165
Al       0.00000000       0.00000000       1.53212121       0.00000000       0.00000000      14.42186165
2
Properties=species:S:1:pos:R:3:forces:R:3 energy=3.685867173243714 pbc="F F F"
Al       0.00000000       0.00000000       0.00000000       0.00000000       0.00000000     -13.74072838
Al       0.00000000       0.00000000       1.59090909       0.00000000       0.00000000      13.74072838
2
Properties=species:S:1:pos:R:3:forces:R:3 energy=2.9006126575453326 pbc="F F F"
Al       0.00000000       0.00000000       0.00000000       0.00000000       0.00000000     -12.97798061
Al       0.00000000       0.00000000       1.64969697       0.00000000       0.00000000      12.97798061
2
Properties=species:S:1:pos:R:3:forces:R:3 energy=2.158705805013859 pbc="F F F"
Al       0.00000000       0.00000000       0.00000000       0.00000000       0.00000000     -12.27366352
Al       0.00000000       0.00000000       1.70848485       0.00000000       0.00000000      12.27366352
2
Properties=species:S:1:pos:R:3:forces:R:3 energy=1.456841410887728 pbc="F F F"
Al       0.00000000       0.00000000       0.00000000       0.00000000       0.00000000     -11.60160065
Al       0.00000000       0.00000000       1.76727273       0.00000000       0.00000000      11.60160065
2
Properties=species:S:1:pos:R:3:forces:R:3 energy=0.7961583115244034 pbc="F F F"
Al       0.00000000       0.00000000       0.00000000       0.00000000       0.00000000     -10.85245132
Al       0.00000000       0.00000000       1.82606061       0.00000000       0.00000000      10.85245132
2
Properties=species:S:1:pos:R:3:forces:R:3 energy=0.18441616315861023 pbc="F F F"
Al       0.00000000       0.00000000       0.00000000       0.00000000       0.00000000      -9.92396832
Al       0.00000000       0.00000000       1.88484848       0.00000000       0.00000000       9.92396832
2
Properties=species:S:1:pos:R:3:forces:R:3 energy=-0.36638408580689963 pbc="F F F"
Al       0.00000000       0.00000000       0.00000000       0.00000000       0.00000000      -8.78015900
Al       0.00000000       0.00000000       1.94363636       0.00000000       0.00000000       8.78015900
2
Properties=species:S:1:pos:R:3:forces:R:3 energy=-0.8445879941120306 pbc="F F F"
Al       0.00000000       0.00000000       0.00000000       0.00000000       0.00000000      -7.46824694
Al       0.00000000       0.00000000       2.00242424       0.00000000       0.00000000       7.46824694
2
Properties=species:S:1:pos:R:3:forces:R:3 energy=-1.243197898096516 pbc="F F F"
Al       0.00000000       0.00000000       0.00000000       0.00000000       0.00000000      -6.09175253
Al       0.00000000       0.00000000       2.06121212       0.00000000       0.00000000       6.09175253
2
Properties=species:S:1:pos:R:3:forces:R:3 energy=-1.5617748952067538 pbc="F F F"
Al       0.00000000       0.00000000       0.00000000       0.00000000       0.00000000      -4.76242781
Al       0.00000000       0.00000000       2.12000000       0.00000000       0.00000000       4.76242781
2
Properties=species:S:1:pos:R:3:forces:R:3 energy=-1.805739052372029 pbc="F F F"
Al       0.00000000       0.00000000       0.00000000       0.00000000       0.00000000      -3.56423354
Al       0.00000000       0.00000000       2.17878788       0.00000000       0.00000000       3.56423354
2
Properties=species:S:1:pos:R:3:forces:R:3 energy=-1.9843254223951001 pbc="F F F"
Al       0.00000000       0.00000000       0.00000000       0.00000000       0.00000000      -2.54279232
Al       0.00000000       0.00000000       2.23757576       0.00000000       0.00000000       2.54279232
2
Properties=species:S:1:pos:R:3:forces:R:3 energy=-2.1084587767383494 pbc="F F F"
Al       0.00000000       0.00000000       0.00000000       0.00000000       0.00000000      -1.71195495
Al       0.00000000       0.00000000       2.29636364       0.00000000       0.00000000       1.71195495
2
Properties=species:S:1:pos:R:3:forces:R:3 energy=-2.18920214213774 pbc="F F F"
Al       0.00000000       0.00000000       0.00000000       0.00000000       0.00000000      -1.06393242
Al       0.00000000       0.00000000       2.35515152       0.00000000       0.00000000       1.06393242
2
Properties=species:S:1:pos:R:3:forces:R:3 energy=-2.2367031425386523 pbc="F F F"
Al       0.00000000       0.00000000       0.00000000       0.00000000       0.00000000      -0.57637000
Al       0.00000000       0.00000000       2.41393939       0.00000000       0.00000000       0.57637000
2
Properties=species:S:1:pos:R:3:forces:R:3 energy=-2.259490793832206 pbc="F F F"
Al       0.00000000       0.00000000       0.00000000       0.00000000       0.00000000      -0.21732292
Al       0.00000000       0.00000000       2.47272727       0.00000000       0.00000000       0.21732292
2
Properties=species:S:1:pos:R:3:forces:R:3 energy=-2.264078131439823 pbc="F F F"
Al       0.00000000       0.00000000       0.00000000       0.00000000       0.00000000       0.04854243
Al       0.00000000       0.00000000       2.53151515       0.00000000       0.00000000      -0.04854243
2
Properties=species:S:1:pos:R:3:forces:R:3 energy=-2.254996002395015 pbc="F F F"
Al       0.00000000       0.00000000       0.00000000       0.00000000       0.00000000       0.25216052
Al       0.00000000       0.00000000       2.59030303       0.00000000       0.00000000      -0.25216052
2
Properties=species:S:1:pos:R:3:forces:R:3 energy=-2.235228026875083 pbc="F F F"
Al       0.00000000       0.00000000       0.00000000       0.00000000       0.00000000       0.41472822
Al       0.00000000       0.00000000       2.64909091       0.00000000       0.00000000      -0.41472822
2
Properties=species:S:1:pos:R:3:forces:R:3 energy=-2.2068092336241505 pbc="F F F"
Al       0.00000000       0.00000000       0.00000000       0.00000000       0.00000000       0.54774183
Al       0.00000000       0.00000000       2.70787879       0.00000000       0.00000000      -0.54774183
2
Properties=species:S:1:pos:R:3:forces:R:3 energy=-2.171289936915055 pbc="F F F"
Al       0.00000000       0.00000000       0.00000000       0.00000000       0.00000000       0.65705293
Al       0.00000000       0.00000000       2.76666667       0.00000000       0.00000000      -0.65705293
2
Properties=species:S:1:pos:R:3:forces:R:3 energy=-2.1299445776922594 pbc="F F F"
Al       0.00000000       0.00000000       0.00000000       0.00000000       0.00000000       0.74649912
Al       0.00000000       0.00000000       2.82545455       0.00000000       0.00000000      -0.74649912
2
Properties=species:S:1:pos:R:3:forces:R:3 energy=-2.0838502276652537 pbc="F F F"
Al       0.00000000       0.00000000       0.00000000       0.00000000       0.00000000       0.81905854
Al       0.00000000       0.00000000       2.88424242       0.00000000       0.00000000      -0.81905854
2
Properties=species:S:1:pos:R:3:forces:R:3 energy=-2.033917445722325 pbc="F F F"
Al       0.00000000       0.00000000       0.00000000       0.00000000       0.00000000       0.87765217
Al       0.00000000       0.00000000       2.94303030       0.00000000       0.00000000      -0.87765217
2
Properties=species:S:1:pos:R:3:forces:R:3 energy=-1.9808552901330487 pbc="F F F"
Al       0.00000000       0.00000000       0.00000000       0.00000000       0.00000000       0.92625272
Al       0.00000000       0.00000000       3.00181818       0.00000000       0.00000000      -0.92625272
2
Properties=species:S:1:pos:R:3:forces:R:3 energy=-1.925148300519018 pbc="F F F"
Al       0.00000000       0.00000000       0.00000000       0.00000000       0.00000000       0.96778250
Al       0.00000000       0.00000000       3.06060606       0.00000000       0.00000000      -0.96778250
2
Properties=species:S:1:pos:R:3:forces:R:3 energy=-1.8672278505740139 pbc="F F F"
Al       0.00000000       0.00000000       0.00000000       0.00000000       0.00000000       1.00112402
Al       0.00000000       0.00000000       3.11939394       0.00000000       0.00000000      -1.00112402
2
Properties=species:S:1:pos:R:3:forces:R:3 energy=-1.8076419045156595 pbc="F F F"
Al       0.00000000       0.00000000       0.00000000       0.00000000       0.00000000       1.02430880
Al       0.00000000       0.00000000       3.17818182       0.00000000       0.00000000      -1.02430880
2
Properties=species:S:1:pos:R:3:forces:R:3 energy=-1.7469756015401592 pbc="F F F"
Al       0.00000000       0.00000000       0.00000000       0.00000000       0.00000000       1.03827250
Al       0.00000000       0.00000000       3.23696970       0.00000000       0.00000000      -1.03827250
2
Properties=species:S:1:pos:R:3:forces:R:3 energy=-1.6856924618764286 pbc="F F F"
Al       0.00000000       0.00000000       0.00000000       0.00000000       0.00000000       1.04576015
Al       0.00000000       0.00000000       3.29575758       0.00000000       0.00000000      -1.04576015
2
Properties=species:S:1:pos:R:3:forces:R:3 energy=-1.6241042567254027 pbc="F F F"
Al       0.00000000       0.00000000       0.00000000       0.00000000       0.00000000       1.04886472
Al       0.00000000       0.00000000       3.35454545       0.00000000       0.00000000      -1.04886472
2
Properties=species:S:1:pos:R:3:forces:R:3 energy=-1.562448481992166 pbc="F F F"
Al       0.00000000       0.00000000       0.00000000       0.00000000       0.00000000       1.04797876
Al       0.00000000       0.00000000       3.41333333       0.00000000       0.00000000      -1.04797876
2
Properties=species:S:1:pos:R:3:forces:R:3 energy=-1.5009848881811392 pbc="F F F"
Al       0.00000000       0.00000000       0.00000000       0.00000000       0.00000000       1.04209721
Al       0.00000000       0.00000000       3.47212121       0.00000000       0.00000000      -1.04209721
2
Properties=species:S:1:pos:R:3:forces:R:3 energy=-1.4400504354480155 pbc="F F F"
Al       0.00000000       0.00000000       0.00000000       0.00000000       0.00000000       1.02977049
Al       0.00000000       0.00000000       3.53090909       0.00000000       0.00000000      -1.02977049
2
Properties=species:S:1:pos:R:3:forces:R:3 energy=-1.3800554159310896 pbc="F F F"
Al       0.00000000       0.00000000       0.00000000       0.00000000       0.00000000       1.00998056
Al       0.00000000       0.00000000       3.58969697       0.00000000       0.00000000      -1.00998056
2
Properties=species:S:1:pos:R:3:forces:R:3 energy=-1.3214477330106669 pbc="F F F"
Al       0.00000000       0.00000000       0.00000000       0.00000000       0.00000000       0.98266226
Al       0.00000000       0.00000000       3.64848485       0.00000000       0.00000000      -0.98266226
2
Properties=species:S:1:pos:R:3:forces:R:3 energy=-1.2646495191653042 pbc="F F F"
Al       0.00000000       0.00000000       0.00000000       0.00000000       0.00000000       0.94870752
Al       0.00000000       0.00000000       3.70727273       0.00000000       0.00000000      -0.94870752
2
Properties=species:S:1:pos:R:3:forces:R:3 energy=-1.2100018938976815 pbc="F F F"
Al       0.00000000       0.00000000       0.00000000       0.00000000       0.00000000       0.90972632
Al       0.00000000       0.00000000       3.76606061       0.00000000       0.00000000      -0.90972632
2
Properties=species:S:1:pos:R:3:forces:R:3 energy=-1.1577478489541304 pbc="F F F"
Al       0.00000000       0.00000000       0.00000000       0.00000000       0.00000000       0.86765403
Al       0.00000000       0.00000000       3.82484848       0.00000000       0.00000000      -0.86765403
2
Properties=species:S:1:pos:R:3:forces:R:3 energy=-1.1080090717093736 pbc="F F F"
Al       0.00000000       0.00000000       0.00000000       0.00000000       0.00000000       0.82443565
Al       0.00000000       0.00000000       3.88363636       0.00000000       0.00000000      -0.82443565
2
Properties=species:S:1:pos:R:3:forces:R:3 energy=-1.0608026514741251 pbc="F F F"
Al       0.00000000       0.00000000       0.00000000       0.00000000       0.00000000       0.78179073
Al       0.00000000       0.00000000       3.94242424       0.00000000       0.00000000      -0.78179073
2
Properties=species:S:1:pos:R:3:forces:R:3 energy=-1.016053056612927 pbc="F F F"
Al       0.00000000       0.00000000       0.00000000       0.00000000       0.00000000       0.74103487
Al       0.00000000       0.00000000       4.00121212       0.00000000       0.00000000      -0.74103487
2
Properties=species:S:1:pos:R:3:forces:R:3 energy=-0.9736223756898287 pbc="F F F"
Al       0.00000000       0.00000000       0.00000000       0.00000000       0.00000000       0.70294785
Al       0.00000000       0.00000000       4.06000000       0.00000000       0.00000000      -0.70294785
2
Properties=species:S:1:pos:R:3:forces:R:3 energy=-0.9333472925230321 pbc="F F F"
Al       0.00000000       0.00000000       0.00000000       0.00000000       0.00000000       0.66767240
Al       0.00000000       0.00000000       4.11878788       0.00000000       0.00000000      -0.66767240
2
Properties=species:S:1:pos:R:3:forces:R:3 energy=-0.8950748319646952 pbc="F F F"
Al       0.00000000       0.00000000       0.00000000       0.00000000       0.00000000       0.63468879
Al       0.00000000       0.00000000       4.17757576       0.00000000       0.00000000      -0.63468879
2
Properties=species:S:1:pos:R:3:forces:R:3 energy=-0.8586979902232426 pbc="F F F"
Al       0.00000000       0.00000000       0.00000000       0.00000000       0.00000000       0.60298008
Al       0.00000000       0.00000000       4.23636364       0.00000000       0.00000000      -0.60298008
2
Properties=species:S:1:pos:R:3:forces:R:3 energy=-0.8241771824480421 pbc="F F F"
Al       0.00000000       0.00000000       0.00000000       0.00000000       0.00000000       0.57134724
Al       0.00000000       0.00000000       4.29515152       0.00000000       0.00000000      -0.57134724
2
Properties=species:S:1:pos:R:3:forces:R:3 energy=-0.7915393702505122 pbc="F F F"
Al       0.00000000       0.00000000       0.00000000       0.00000000       0.00000000       0.53883225
Al       0.00000000       0.00000000       4.35393939       0.00000000       0.00000000      -0.53883225
2
Properties=species:S:1:pos:R:3:forces:R:3 energy=-0.760850549364779 pbc="F F F"
Al       0.00000000       0.00000000       0.00000000       0.00000000       0.00000000       0.50498956
Al       0.00000000       0.00000000       4.41272727       0.00000000       0.00000000      -0.50498956
2
Properties=species:S:1:pos:R:3:forces:R:3 energy=-0.7321879427889654 pbc="F F F"
Al       0.00000000       0.00000000       0.00000000       0.00000000       0.00000000       0.46996298
Al       0.00000000       0.00000000       4.47151515       0.00000000       0.00000000      -0.46996298
2
Properties=species:S:1:pos:R:3:forces:R:3 energy=-0.7056065734988322 pbc="F F F"
Al       0.00000000       0.00000000       0.00000000       0.00000000       0.00000000       0.43428424
Al       0.00000000       0.00000000       4.53030303       0.00000000       0.00000000      -0.43428424
2
Properties=species:S:1:pos:R:3:forces:R:3 energy=-0.6811285592023685 pbc="F F F"
Al       0.00000000       0.00000000       0.00000000       0.00000000       0.00000000       0.39851612
Al       0.00000000       0.00000000       4.58909091       0.00000000       0.00000000      -0.39851612
2
Properties=species:S:1:pos:R:3:forces:R:3 energy=-0.6587467001218139 pbc="F F F"
Al       0.00000000       0.00000000       0.00000000       0.00000000       0.00000000       0.36298224
Al       0.00000000       0.00000000       4.64787879       0.00000000       0.00000000      -0.36298224
2
Properties=species:S:1:pos:R:3:forces:R:3 energy=-0.6384462721188916 pbc="F F F"
Al       0.00000000       0.00000000       0.00000000       0.00000000       0.00000000       0.32764763
Al       0.00000000       0.00000000       4.70666667       0.00000000       0.00000000      -0.32764763
2
Properties=species:S:1:pos:R:3:forces:R:3 energy=-0.6202228029661341 pbc="F F F"
Al       0.00000000       0.00000000       0.00000000       0.00000000       0.00000000       0.29232612
Al       0.00000000       0.00000000       4.76545455       0.00000000       0.00000000      -0.29232612
2
Properties=species:S:1:pos:R:3:forces:R:3 energy=-0.60407465661233 pbc="F F F"
Al       0.00000000       0.00000000       0.00000000       0.00000000       0.00000000       0.25708777
Al       0.00000000       0.00000000       4.82424242       0.00000000       0.00000000      -0.25708777
2
Properties=species:S:1:pos:R:3:forces:R:3 energy=-0.5899789586577026 pbc="F F F"
Al       0.00000000       0.00000000       0.00000000       0.00000000       0.00000000       0.22277209
Al       0.00000000       0.00000000       4.88303030       0.00000000       0.00000000      -0.22277209
2
Properties=species:S:1:pos:R:3:forces:R:3 energy=-0.5778271789880429 pbc="F F F"
Al       0.00000000       0.00000000       0.00000000       0.00000000       0.00000000       0.19130181
Al       0.00000000       0.00000000       4.94181818       0.00000000       0.00000000      -0.19130181
2
Properties=species:S:1:pos:R:3:forces:R:3 energy=-0.5673742094012033 pbc="F F F"
Al       0.00000000       0.00000000       0.00000000       0.00000000       0.00000000       0.16550580
Al       0.00000000       0.00000000       5.00060606       0.00000000       0.00000000      -0.16550580
2
Properties=species:S:1:pos:R:3:forces:R:3 energy=-0.5582010316765762 pbc="F F F"
Al       0.00000000       0.00000000       0.00000000       0.00000000       0.00000000       0.14814755
Al       0.00000000       0.00000000       5.05939394       0.00000000       0.00000000      -0.14814755
2
Properties=species:S:1:pos:R:3:forces:R:3 energy=-0.5497677318628353 pbc="F F F"
Al       0.00000000       0.00000000       0.00000000       0.00000000       0.00000000       0.14024979
Al       0.00000000       0.00000000       5.11818182       0.00000000       0.00000000      -0.14024979
2
Properties=species:S:1:pos:R:3:forces:R:3 energy=-0.5415740953658466 pbc="F F F"
Al       0.00000000       0.00000000       0.00000000       0.00000000       0.00000000       0.13919324
Al       0.00000000       0.00000000       5.17696970       0.00000000       0.00000000      -0.13919324
2
Properties=species:S:1:pos:R:3:forces:R:3 energy=-0.5334053194691857 pbc="F F F"
Al       0.00000000       0.00000000       0.00000000       0.00000000       0.00000000       0.13792165
Al       0.00000000       0.00000000       5.23575758       0.00000000       0.00000000      -0.13792165
2
Properties=species:S:1:pos:R:3:forces:R:3 energy=-0.5255356972445129 pbc="F F F"
Al       0.00000000       0.00000000       0.00000000       0.00000000       0.00000000       0.12787814
Al       0.00000000       0.00000000       5.29454545       0.00000000       0.00000000      -0.12787814
2
Properties=species:S:1:pos:R:3:forces:R:3 energy=-0.5185476489305434 pbc="F F F"
Al       0.00000000       0.00000000       0.00000000       0.00000000       0.00000000       0.10961817
Al       0.00000000       0.00000000       5.35333333       0.00000000       0.00000000      -0.10961817
2
Properties=species:S:1:pos:R:3:forces:R:3 energy=-0.5123698053366169 pbc="F F F"
Al       0.00000000       0.00000000       0.00000000       0.00000000       0.00000000       0.10573418
Al       0.00000000       0.00000000       5.41212121       0.00000000       0.00000000      -0.10573418
2
Properties=species:S:1:pos:R:3:forces:R:3 energy=-0.5053890624863318 pbc="F F F"
Al       0.00000000       0.00000000       0.00000000       0.00000000       0.00000000       0.13622278
Al       0.00000000       0.00000000       5.47090909       0.00000000       0.00000000      -0.13622278
2
Properties=species:S:1:pos:R:3:forces:R:3 energy=-0.496432096143468 pbc="F F F"
Al       0.00000000       0.00000000       0.00000000       0.00000000       0.00000000       0.16277544
Al       0.00000000       0.00000000       5.52969697       0.00000000       0.00000000      -0.16277544
2
Properties=species:S:1:pos:R:3:forces:R:3 energy=-0.487069963022927 pbc="F F F"
Al       0.00000000       0.00000000       0.00000000       0.00000000       0.00000000       0.15050079
Al       0.00000000       0.00000000       5.58848485       0.00000000       0.00000000      -0.15050079
2
Properties=species:S:1:pos:R:3:forces:R:3 energy=-0.478876402756572 pbc="F F F"
Al       0.00000000       0.00000000       0.00000000       0.00000000       0.00000000       0.13123639
Al       0.00000000       0.00000000       5.64727273       0.00000000       0.00000000      -0.13123639
2
Properties=species:S:1:pos:R:3:forces:R:3 energy=-0.4709832862682788 pbc="F F F"
Al       0.00000000       0.00000000       0.00000000       0.00000000       0.00000000       0.14336324
Al       0.00000000       0.00000000       5.70606061       0.00000000       0.00000000      -0.14336324
2
Properties=species:S:1:pos:R:3:forces:R:3 energy=-0.46179044549336057 pbc="F F F"
Al       0.00000000       0.00000000       0.00000000       0.00000000       0.00000000       0.16437167
Al       0.00000000       0.00000000       5.76484848       0.00000000       0.00000000      -0.16437167
2
Properties=species:S:1:pos:R:3:forces:R:3 energy=-0.45271263450915905 pbc="F F F"
Al       0.00000000       0.00000000       0.00000000       0.00000000       0.00000000       0.13529067
Al       0.00000000       0.00000000       5.82363636       0.00000000       0.00000000      -0.13529067
2
Properties=species:S:1:pos:R:3:forces:R:3 energy=-0.44655883172627003 pbc="F F F"
Al       0.00000000       0.00000000       0.00000000       0.00000000       0.00000000       0.07376323
Al       0.00000000       0.00000000       5.88242424       0.00000000       0.00000000      -0.07376323
2
Properties=species:S:1:pos:R:3:forces:R:3 energy=-0.44373128128555894 pbc="F F F"
Al       0.00000000       0.00000000       0.00000000       0.00000000       0.00000000       0.02641229
Al       0.00000000       0.00000000       5.94121212       0.00000000       0.00000000      -0.02641229
2
Properties=species:S:1:pos:R:3:forces:R:3 energy=-0.4428510456809782 pbc="F F F"
Al       0.00000000       0.00000000       0.00000000       0.00000000       0.00000000       0.00916749
Al       0.00000000       0.00000000       6.00000000       0.00000000       0.00000000      -0.00916749
