2
Properties=species:S:1:pos:R:3:forces:R:3 energy=4763.508903949226 pbc="F F F"
Al       0.00000000       0.00000000       0.00000000       0.00000000       0.00000000  -97422.32031250
Al       0.00000000       0.00000000       0.10000000       0.00000000       0.00000000   97422.32031250
2
Properties=species:S:1:pos:R:3:forces:R:3 energy=1690.4653248476639 pbc="F F F"
Al       0.00000000       0.00000000       0.00000000       0.00000000       0.00000000  -25280.16992188
Al       0.00000000       0.00000000       0.15959596       0.00000000       0.00000000   25280.16992188
2
Properties=species:S:1:pos:R:3:forces:R:3 energy=767.9040455507887 pbc="F F F"
Al       0.00000000       0.00000000       0.00000000       0.00000000       0.00000000   -9013.23535156
Al       0.00000000       0.00000000       0.21919192       0.00000000       0.00000000    9013.23535156
2
Properties=species:S:1:pos:R:3:forces:R:3 energy=410.1692738222731 pbc="F F F"
Al       0.00000000       0.00000000       0.00000000       0.00000000       0.00000000   -3858.58496094
Al       0.00000000       0.00000000       0.27878788       0.00000000       0.00000000    3858.58496094
2
Properties=species:S:1:pos:R:3:forces:R:3 energy=248.02048537646033 pbc="F F F"
Al       0.00000000       0.00000000       0.00000000       0.00000000       0.00000000   -1868.16015625
Al       0.00000000       0.00000000       0.33838384       0.00000000       0.00000000    1868.16015625
2
Properties=species:S:1:pos:R:3:forces:R:3 energy=166.1534962470538 pbc="F F F"
Al       0.00000000       0.00000000       0.00000000       0.00000000       0.00000000    -989.83599854
Al       0.00000000       0.00000000       0.39797980       0.00000000       0.00000000     989.83599854
2
Properties=species:S:1:pos:R:3:forces:R:3 energy=121.2489857616782 pbc="F F F"
Al       0.00000000       0.00000000       0.00000000       0.00000000       0.00000000    -565.71490479
Al       0.00000000       0.00000000       0.45757576       0.00000000       0.00000000     565.71490479
2
Properties=species:S:1:pos:R:3:forces:R:3 energy=94.67861989393035 pbc="F F F"
Al       0.00000000       0.00000000       0.00000000       0.00000000       0.00000000    -349.44857788
Al       0.00000000       0.00000000       0.51717172       0.00000000       0.00000000     349.44857788
2
Properties=species:S:1:pos:R:3:forces:R:3 energy=77.57252559059958 pbc="F F F"
Al       0.00000000       0.00000000       0.00000000       0.00000000       0.00000000    -236.78622437
Al       0.00000000       0.00000000       0.57676768       0.00000000       0.00000000     236.78622437
2
Properties=species:S:1:pos:R:3:forces:R:3 energy=65.38069218320486 pbc="F F F"
Al       0.00000000       0.00000000       0.00000000       0.00000000       0.00000000    -178.99134827
Al       0.00000000       0.00000000       0.63636364       0.00000000       0.00000000     178.99134827
2
Properties=species:S:1:pos:R:3:forces:R:3 energy=55.64975437749665 pbc="F F F"
Al       0.00000000       0.00000000       0.00000000       0.00000000       0.00000000    -150.98078918
Al       0.00000000       0.00000000       0.69595960       0.00000000       0.00000000     150.98078918
2
Properties=species:S:1:pos:R:3:forces:R:3 energy=47.12080868906393 pbc="F F F"
Al       0.00000000       0.00000000       0.00000000       0.00000000       0.00000000    -136.61564636
Al       0.00000000       0.00000000       0.75555556       0.00000000       0.00000000     136.61564636
2
Properties=species:S:1:pos:R:3:forces:R:3 energy=39.328744364440674 pbc="F F F"
Al       0.00000000       0.00000000       0.00000000       0.00000000       0.00000000    -124.26779938
Al       0.00000000       0.00000000       0.81515152       0.00000000       0.00000000     124.26779938
2
Properties=species:S:1:pos:R:3:forces:R:3 energy=32.40780065742503 pbc="F F F"
Al       0.00000000       0.00000000       0.00000000       0.00000000       0.00000000    -107.10041046
Al       0.00000000       0.00000000       0.87474747       0.00000000       0.00000000     107.10041046
2
Properties=species:S:1:pos:R:3:forces:R:3 energy=26.66263077375547 pbc="F F F"
Al       0.00000000       0.00000000       0.00000000       0.00000000       0.00000000     -85.45802307
Al       0.00000000       0.00000000       0.93434343       0.00000000       0.00000000      85.45802307
2
Properties=species:S:1:pos:R:3:forces:R:3 energy=22.138110875421255 pbc="F F F"
Al       0.00000000       0.00000000       0.00000000       0.00000000       0.00000000     -67.50919342
Al       0.00000000       0.00000000       0.99393939       0.00000000       0.00000000      67.50919342
2
Properties=species:S:1:pos:R:3:forces:R:3 energy=18.48622623224972 pbc="F F F"
Al       0.00000000       0.00000000       0.00000000       0.00000000       0.00000000     -56.43529892
Al       0.00000000       0.00000000       1.05353535       0.00000000       0.00000000      56.43529892
2
Properties=species:S:1:pos:R:3:forces:R:3 energy=15.242327719829145 pbc="F F F"
Al       0.00000000       0.00000000       0.00000000       0.00000000       0.00000000     -52.88769913
Al       0.00000000       0.00000000       1.11313131       0.00000000       0.00000000      52.88769913
2
Properties=species:S:1:pos:R:3:forces:R:3 energy=12.276781555033356 pbc="F F F"
Al       0.00000000       0.00000000       0.00000000       0.00000000       0.00000000     -45.41496658
Al       0.00000000       0.00000000       1.17272727       0.00000000       0.00000000      45.41496658
2
Properties=species:S:1:pos:R:3:forces:R:3 energy=9.920123772254042 pbc="F F F"
Al       0.00000000       0.00000000       0.00000000       0.00000000       0.00000000     -33.35303879
Al       0.00000000       0.00000000       1.23232323       0.00000000       0.00000000      33.35303879
2
Properties=species:S:1:pos:R:3:forces:R:3 energy=8.291213820958975 pbc="F F F"
Al       0.00000000       0.00000000       0.00000000       0.00000000       0.00000000     -21.90782356
Al       0.00000000       0.00000000       1.29191919       0.00000000       0.00000000      21.90782356
2
Properties=species:S:1:pos:R:3:forces:R:3 energy=7.193367047540528 pbc="F F F"
Al       0.00000000       0.00000000       0.00000000       0.00000000       0.00000000     -15.98573494
Al       0.00000000       0.00000000       1.35151515       0.00000000       0.00000000      15.98573494
2
Properties=species:S:1:pos:R:3:forces:R:3 energy=6.291555521213879 pbc="F F F"
Al       0.00000000       0.00000000       0.00000000       0.00000000       0.00000000     -14.74129486
Al       0.00000000       0.00000000       1.41111111       0.00000000       0.00000000      14.74129486
2
Properties=species:S:1:pos:R:3:forces:R:3 energy=5.413127250836928 pbc="F F F"
Al       0.00000000       0.00000000       0.00000000       0.00000000       0.00000000     -14.74876022
Al       0.00000000       0.00000000       1.47070707       0.00000000       0.00000000      14.74876022
2
Properties=species:S:1:pos:R:3:forces:R:3 energy=4.540946443566257 pbc="F F F"
Al       0.00000000       0.00000000       0.00000000       0.00000000       0.00000000     -14.43867588
Al       0.00000000       0.00000000       1.53030303       0.00000000       0.00000000      14.43867588
2
Properties=species:S:1:pos:R:3:forces:R:3 energy=3.6997519790415248 pbc="F F F"
Al       0.00000000       0.00000000       0.00000000       0.00000000       0.00000000     -13.75377655
Al       0.00000000       0.00000000       1.58989899       0.00000000       0.00000000      13.75377655
2
Properties=species:S:1:pos:R:3:forces:R:3 energy=2.9032337743831764 pbc="F F F"
Al       0.00000000       0.00000000       0.00000000       0.00000000       0.00000000     -12.98053837
Al       0.00000000       0.00000000       1.64949495       0.00000000       0.00000000      12.98053837
2
Properties=species:S:1:pos:R:3:forces:R:3 energy=2.1512735342982756 pbc="F F F"
Al       0.00000000       0.00000000       0.00000000       0.00000000       0.00000000     -12.26673317
Al       0.00000000       0.00000000       1.70909091       0.00000000       0.00000000      12.26673317
2
Properties=species:S:1:pos:R:3:forces:R:3 energy=1.4404450629320074 pbc="F F F"
Al       0.00000000       0.00000000       0.00000000       0.00000000       0.00000000     -11.58496857
Al       0.00000000       0.00000000       1.76868687       0.00000000       0.00000000      11.58496857
2
Properties=species:S:1:pos:R:3:forces:R:3 energy=0.772078446356141 pbc="F F F"
Al       0.00000000       0.00000000       0.00000000       0.00000000       0.00000000     -10.82109642
Al       0.00000000       0.00000000       1.82828283       0.00000000       0.00000000      10.82109642
2
Properties=species:S:1:pos:R:3:forces:R:3 energy=0.15442341653038835 pbc="F F F"
Al       0.00000000       0.00000000       0.00000000       0.00000000       0.00000000      -9.87020779
Al       0.00000000       0.00000000       1.88787879       0.00000000       0.00000000       9.87020779
2
Properties=species:S:1:pos:R:3:forces:R:3 energy=-0.39992738729355803 pbc="F F F"
Al       0.00000000       0.00000000       0.00000000       0.00000000       0.00000000      -8.69870567
Al       0.00000000       0.00000000       1.94747475       0.00000000       0.00000000       8.69870567
2
Properties=species:S:1:pos:R:3:forces:R:3 energy=-0.8790354183162807 pbc="F F F"
Al       0.00000000       0.00000000       0.00000000       0.00000000       0.00000000      -7.36027384
Al       0.00000000       0.00000000       2.00707071       0.00000000       0.00000000       7.36027384
2
Properties=species:S:1:pos:R:3:forces:R:3 energy=-1.276078380537832 pbc="F F F"
Al       0.00000000       0.00000000       0.00000000       0.00000000       0.00000000      -5.96487379
Al       0.00000000       0.00000000       2.06666667       0.00000000       0.00000000       5.96487379
2
Properties=species:S:1:pos:R:3:forces:R:3 energy=-1.5911765244531468 pbc="F F F"
Al       0.00000000       0.00000000       0.00000000       0.00000000       0.00000000      -4.62743044
Al       0.00000000       0.00000000       2.12626263       0.00000000       0.00000000       4.62743044
2
Properties=species:S:1:pos:R:3:forces:R:3 energy=-1.830471585855825 pbc="F F F"
Al       0.00000000       0.00000000       0.00000000       0.00000000       0.00000000      -3.43149757
Al       0.00000000       0.00000000       2.18585859       0.00000000       0.00000000       3.43149757
2
Properties=species:S:1:pos:R:3:forces:R:3 energy=-2.0038767623509663 pbc="F F F"
Al       0.00000000       0.00000000       0.00000000       0.00000000       0.00000000      -2.42036676
Al       0.00000000       0.00000000       2.24545455       0.00000000       0.00000000       2.42036676
2
Properties=species:S:1:pos:R:3:forces:R:3 energy=-2.1228643560037637 pbc="F F F"
Al       0.00000000       0.00000000       0.00000000       0.00000000       0.00000000      -1.60508513
Al       0.00000000       0.00000000       2.30505051       0.00000000       0.00000000       1.60508513
2
Properties=species:S:1:pos:R:3:forces:R:3 energy=-2.1988791863946022 pbc="F F F"
Al       0.00000000       0.00000000       0.00000000       0.00000000       0.00000000      -0.97506535
Al       0.00000000       0.00000000       2.36464646       0.00000000       0.00000000       0.97506535
2
Properties=species:S:1:pos:R:3:forces:R:3 energy=-2.2422709902357085 pbc="F F F"
Al       0.00000000       0.00000000       0.00000000       0.00000000       0.00000000      -0.50516087
Al       0.00000000       0.00000000       2.42424242       0.00000000       0.00000000       0.50516087
2
Properties=species:S:1:pos:R:3:forces:R:3 energy=-2.2615894228004403 pbc="F F F"
Al       0.00000000       0.00000000       0.00000000       0.00000000       0.00000000      -0.16097398
Al       0.00000000       0.00000000       2.48383838       0.00000000       0.00000000       0.16097398
2
Properties=species:S:1:pos:R:3:forces:R:3 energy=-2.2632255275613544 pbc="F F F"
Al       0.00000000       0.00000000       0.00000000       0.00000000       0.00000000       0.09401330
Al       0.00000000       0.00000000       2.54343434       0.00000000       0.00000000      -0.09401330
2
Properties=species:S:1:pos:R:3:forces:R:3 energy=-2.2515415499388367 pbc="F F F"
Al       0.00000000       0.00000000       0.00000000       0.00000000       0.00000000       0.29031202
Al       0.00000000       0.00000000       2.60303030       0.00000000       0.00000000      -0.29031202
2
Properties=species:S:1:pos:R:3:forces:R:3 energy=-2.229388915855808 pbc="F F F"
Al       0.00000000       0.00000000       0.00000000       0.00000000       0.00000000       0.44770250
Al       0.00000000       0.00000000       2.66262626       0.00000000       0.00000000      -0.44770250
2
Properties=species:S:1:pos:R:3:forces:R:3 energy=-2.1987458367754074 pbc="F F F"
Al       0.00000000       0.00000000       0.00000000       0.00000000       0.00000000       0.57643342
Al       0.00000000       0.00000000       2.72222222       0.00000000       0.00000000      -0.57643342
2
Properties=species:S:1:pos:R:3:forces:R:3 energy=-2.1611446289451766 pbc="F F F"
Al       0.00000000       0.00000000       0.00000000       0.00000000       0.00000000       0.68187535
Al       0.00000000       0.00000000       2.78181818       0.00000000       0.00000000      -0.68187535
2
Properties=species:S:1:pos:R:3:forces:R:3 energy=-2.117859884151579 pbc="F F F"
Al       0.00000000       0.00000000       0.00000000       0.00000000       0.00000000       0.76775342
Al       0.00000000       0.00000000       2.84141414       0.00000000       0.00000000      -0.76775342
2
Properties=species:S:1:pos:R:3:forces:R:3 energy=-2.0699644670145987 pbc="F F F"
Al       0.00000000       0.00000000       0.00000000       0.00000000       0.00000000       0.83704203
Al       0.00000000       0.00000000       2.90101010       0.00000000       0.00000000      -0.83704203
2
Properties=species:S:1:pos:R:3:forces:R:3 energy=-2.0183560564555463 pbc="F F F"
Al       0.00000000       0.00000000       0.00000000       0.00000000       0.00000000       0.89303440
Al       0.00000000       0.00000000       2.96060606       0.00000000       0.00000000      -0.89303440
2
Properties=species:S:1:pos:R:3:forces:R:3 energy=-1.9636990806839085 pbc="F F F"
Al       0.00000000       0.00000000       0.00000000       0.00000000       0.00000000       0.93997419
Al       0.00000000       0.00000000       3.02020202       0.00000000       0.00000000      -0.93997419
2
Properties=species:S:1:pos:R:3:forces:R:3 energy=-1.9064580738616932 pbc="F F F"
Al       0.00000000       0.00000000       0.00000000       0.00000000       0.00000000       0.97970307
Al       0.00000000       0.00000000       3.07979798       0.00000000       0.00000000      -0.97970307
2
Properties=species:S:1:pos:R:3:forces:R:3 energy=-1.847112104987003 pbc="F F F"
Al       0.00000000       0.00000000       0.00000000       0.00000000       0.00000000       1.01017225
Al       0.00000000       0.00000000       3.13939394       0.00000000       0.00000000      -1.01017225
2
Properties=species:S:1:pos:R:3:forces:R:3 energy=-1.786264966474504 pbc="F F F"
Al       0.00000000       0.00000000       0.00000000       0.00000000       0.00000000       1.03017521
Al       0.00000000       0.00000000       3.19898990       0.00000000       0.00000000      -1.03017521
2
Properties=species:S:1:pos:R:3:forces:R:3 energy=-1.7244940955763122 pbc="F F F"
Al       0.00000000       0.00000000       0.00000000       0.00000000       0.00000000       1.04163349
Al       0.00000000       0.00000000       3.25858586       0.00000000       0.00000000      -1.04163349
2
Properties=species:S:1:pos:R:3:forces:R:3 energy=-1.662222780338798 pbc="F F F"
Al       0.00000000       0.00000000       0.00000000       0.00000000       0.00000000       1.04740155
Al       0.00000000       0.00000000       3.31818182       0.00000000       0.00000000      -1.04740155
2
Properties=species:S:1:pos:R:3:forces:R:3 energy=-1.5997332695114728 pbc="F F F"
Al       0.00000000       0.00000000       0.00000000       0.00000000       0.00000000       1.04902542
Al       0.00000000       0.00000000       3.37777778       0.00000000       0.00000000      -1.04902542
2
Properties=species:S:1:pos:R:3:forces:R:3 energy=-1.5372735366802757 pbc="F F F"
Al       0.00000000       0.00000000       0.00000000       0.00000000       0.00000000       1.04625905
Al       0.00000000       0.00000000       3.43737374       0.00000000       0.00000000      -1.04625905
2
Properties=species:S:1:pos:R:3:forces:R:3 energy=-1.475141335057448 pbc="F F F"
Al       0.00000000       0.00000000       0.00000000       0.00000000       0.00000000       1.03774953
Al       0.00000000       0.00000000       3.49696970       0.00000000       0.00000000      -1.03774953
2
Properties=species:S:1:pos:R:3:forces:R:3 energy=-1.413724276714853 pbc="F F F"
Al       0.00000000       0.00000000       0.00000000       0.00000000       0.00000000       1.02207947
Al       0.00000000       0.00000000       3.55656566       0.00000000       0.00000000      -1.02207947
2
Properties=species:S:1:pos:R:3:forces:R:3 energy=-1.353474512074194 pbc="F F F"
Al       0.00000000       0.00000000       0.00000000       0.00000000       0.00000000       0.99858165
Al       0.00000000       0.00000000       3.61616162       0.00000000       0.00000000      -0.99858165
2
Properties=species:S:1:pos:R:3:forces:R:3 energy=-1.294850699686181 pbc="F F F"
Al       0.00000000       0.00000000       0.00000000       0.00000000       0.00000000       0.96764982
Al       0.00000000       0.00000000       3.67575758       0.00000000       0.00000000      -0.96764982
2
Properties=species:S:1:pos:R:3:forces:R:3 energy=-1.2382602285872164 pbc="F F F"
Al       0.00000000       0.00000000       0.00000000       0.00000000       0.00000000       0.93059862
Al       0.00000000       0.00000000       3.73535354       0.00000000       0.00000000      -0.93059862
2
Properties=species:S:1:pos:R:3:forces:R:3 energy=-1.1840146468725752 pbc="F F F"
Al       0.00000000       0.00000000       0.00000000       0.00000000       0.00000000       0.88931412
Al       0.00000000       0.00000000       3.79494949       0.00000000       0.00000000      -0.88931412
2
Properties=species:S:1:pos:R:3:forces:R:3 energy=-1.1323046209140721 pbc="F F F"
Al       0.00000000       0.00000000       0.00000000       0.00000000       0.00000000       0.84585071
Al       0.00000000       0.00000000       3.85454545       0.00000000       0.00000000      -0.84585071
2
Properties=species:S:1:pos:R:3:forces:R:3 energy=-1.0832010731040966 pbc="F F F"
Al       0.00000000       0.00000000       0.00000000       0.00000000       0.00000000       0.80214316
Al       0.00000000       0.00000000       3.91414141       0.00000000       0.00000000      -0.80214316
2
Properties=species:S:1:pos:R:3:forces:R:3 energy=-1.0366682560316787 pbc="F F F"
Al       0.00000000       0.00000000       0.00000000       0.00000000       0.00000000       0.75978166
Al       0.00000000       0.00000000       3.97373737       0.00000000       0.00000000      -0.75978166
2
Properties=species:S:1:pos:R:3:forces:R:3 energy=-0.9925918807071314 pbc="F F F"
Al       0.00000000       0.00000000       0.00000000       0.00000000       0.00000000       0.71986842
Al       0.00000000       0.00000000       4.03333333       0.00000000       0.00000000      -0.71986842
2
Properties=species:S:1:pos:R:3:forces:R:3 energy=-0.9508076519317636 pbc="F F F"
Al       0.00000000       0.00000000       0.00000000       0.00000000       0.00000000       0.68286288
Al       0.00000000       0.00000000       4.09292929       0.00000000       0.00000000      -0.68286288
2
Properties=species:S:1:pos:R:3:forces:R:3 energy=-0.9111465678279088 pbc="F F F"
Al       0.00000000       0.00000000       0.00000000       0.00000000       0.00000000       0.64851975
Al       0.00000000       0.00000000       4.15252525       0.00000000       0.00000000      -0.64851975
2
Properties=species:S:1:pos:R:3:forces:R:3 energy=-0.8734734080163639 pbc="F F F"
Al       0.00000000       0.00000000       0.00000000       0.00000000       0.00000000       0.61597794
Al       0.00000000       0.00000000       4.21212121       0.00000000       0.00000000      -0.61597794
2
Properties=species:S:1:pos:R:3:forces:R:3 energy=-0.8377151638639942 pbc="F F F"
Al       0.00000000       0.00000000       0.00000000       0.00000000       0.00000000       0.58401823
Al       0.00000000       0.00000000       4.27171717       0.00000000       0.00000000      -0.58401823
2
Properties=species:S:1:pos:R:3:forces:R:3 energy=-0.8038746651886568 pbc="F F F"
Al       0.00000000       0.00000000       0.00000000       0.00000000       0.00000000       0.55149287
Al       0.00000000       0.00000000       4.33131313       0.00000000       0.00000000      -0.55149287
2
Properties=species:S:1:pos:R:3:forces:R:3 energy=-0.7720073675418528 pbc="F F F"
Al       0.00000000       0.00000000       0.00000000       0.00000000       0.00000000       0.51770687
Al       0.00000000       0.00000000       4.39090909       0.00000000       0.00000000      -0.51770687
2
Properties=species:S:1:pos:R:3:forces:R:3 energy=-0.7421945505414062 pbc="F F F"
Al       0.00000000       0.00000000       0.00000000       0.00000000       0.00000000       0.48258877
Al       0.00000000       0.00000000       4.45050505       0.00000000       0.00000000      -0.48258877
2
Properties=species:S:1:pos:R:3:forces:R:3 energy=-0.7145050536893872 pbc="F F F"
Al       0.00000000       0.00000000       0.00000000       0.00000000       0.00000000       0.44658089
Al       0.00000000       0.00000000       4.51010101       0.00000000       0.00000000      -0.44658089
2
Properties=species:S:1:pos:R:3:forces:R:3 energy=-0.6889710935573632 pbc="F F F"
Al       0.00000000       0.00000000       0.00000000       0.00000000       0.00000000       0.41029948
Al       0.00000000       0.00000000       4.56969697       0.00000000       0.00000000      -0.41029948
2
Properties=species:S:1:pos:R:3:forces:R:3 energy=-0.6655965145699541 pbc="F F F"
Al       0.00000000       0.00000000       0.00000000       0.00000000       0.00000000       0.37418583
Al       0.00000000       0.00000000       4.62929293       0.00000000       0.00000000      -0.37418583
2
Properties=species:S:1:pos:R:3:forces:R:3 energy=-0.644366590341071 pbc="F F F"
Al       0.00000000       0.00000000       0.00000000       0.00000000       0.00000000       0.33832413
Al       0.00000000       0.00000000       4.68888889       0.00000000       0.00000000      -0.33832413
2
Properties=species:S:1:pos:R:3:forces:R:3 energy=-0.6252696754151046 pbc="F F F"
Al       0.00000000       0.00000000       0.00000000       0.00000000       0.00000000       0.30252695
Al       0.00000000       0.00000000       4.74848485       0.00000000       0.00000000      -0.30252695
2
Properties=species:S:1:pos:R:3:forces:R:3 energy=-0.6083080553121439 pbc="F F F"
Al       0.00000000       0.00000000       0.00000000       0.00000000       0.00000000       0.26673788
Al       0.00000000       0.00000000       4.80808081       0.00000000       0.00000000      -0.26673788
2
Properties=species:S:1:pos:R:3:forces:R:3 energy=-0.5934654847553053 pbc="F F F"
Al       0.00000000       0.00000000       0.00000000       0.00000000       0.00000000       0.23155600
Al       0.00000000       0.00000000       4.86767677       0.00000000       0.00000000      -0.23155600
2
Properties=species:S:1:pos:R:3:forces:R:3 energy=-0.5806628285597542 pbc="F F F"
Al       0.00000000       0.00000000       0.00000000       0.00000000       0.00000000       0.19867858
Al       0.00000000       0.00000000       4.92727273       0.00000000       0.00000000      -0.19867858
2
Properties=species:S:1:pos:R:3:forces:R:3 energy=-0.569684289505431 pbc="F F F"
Al       0.00000000       0.00000000       0.00000000       0.00000000       0.00000000       0.17086551
Al       0.00000000       0.00000000       4.98686869       0.00000000       0.00000000      -0.17086551
2
Properties=species:S:1:pos:R:3:forces:R:3 energy=-0.5601363419047521 pbc="F F F"
Al       0.00000000       0.00000000       0.00000000       0.00000000       0.00000000       0.15114594
Al       0.00000000       0.00000000       5.04646465       0.00000000       0.00000000      -0.15114594
2
Properties=species:S:1:pos:R:3:forces:R:3 energy=-0.5514737814162233 pbc="F F F"
Al       0.00000000       0.00000000       0.00000000       0.00000000       0.00000000       0.14116456
Al       0.00000000       0.00000000       5.10606061       0.00000000       0.00000000      -0.14116456
2
Properties=species:S:1:pos:R:3:forces:R:3 energy=-0.5431478627615911 pbc="F F F"
Al       0.00000000       0.00000000       0.00000000       0.00000000       0.00000000       0.13914046
Al       0.00000000       0.00000000       5.16565657       0.00000000       0.00000000      -0.13914046
2
Properties=species:S:1:pos:R:3:forces:R:3 energy=-0.5348571915148138 pbc="F F F"
Al       0.00000000       0.00000000       0.00000000       0.00000000       0.00000000       0.13857968
Al       0.00000000       0.00000000       5.22525253       0.00000000       0.00000000      -0.13857968
2
Properties=species:S:1:pos:R:3:forces:R:3 energy=-0.5267871749670565 pbc="F F F"
Al       0.00000000       0.00000000       0.00000000       0.00000000       0.00000000       0.13034119
Al       0.00000000       0.00000000       5.28484848       0.00000000       0.00000000      -0.13034119
2
Properties=species:S:1:pos:R:3:forces:R:3 energy=-0.5195332309213939 pbc="F F F"
Al       0.00000000       0.00000000       0.00000000       0.00000000       0.00000000       0.11227292
Al       0.00000000       0.00000000       5.34444444       0.00000000       0.00000000      -0.11227292
2
Properties=species:S:1:pos:R:3:forces:R:3 energy=-0.5132171406224713 pbc="F F F"
Al       0.00000000       0.00000000       0.00000000       0.00000000       0.00000000       0.10422016
Al       0.00000000       0.00000000       5.40404040       0.00000000       0.00000000      -0.10422016
2
Properties=species:S:1:pos:R:3:forces:R:3 energy=-0.5063595246983517 pbc="F F F"
Al       0.00000000       0.00000000       0.00000000       0.00000000       0.00000000       0.13138786
Al       0.00000000       0.00000000       5.46363636       0.00000000       0.00000000      -0.13138786
2
Properties=species:S:1:pos:R:3:forces:R:3 energy=-0.49748346999023085 pbc="F F F"
Al       0.00000000       0.00000000       0.00000000       0.00000000       0.00000000       0.16176099
Al       0.00000000       0.00000000       5.52323232       0.00000000       0.00000000      -0.16176099
2
Properties=species:S:1:pos:R:3:forces:R:3 energy=-0.4879282370851232 pbc="F F F"
Al       0.00000000       0.00000000       0.00000000       0.00000000       0.00000000       0.15278377
Al       0.00000000       0.00000000       5.58282828       0.00000000       0.00000000      -0.15278377
2
Properties=species:S:1:pos:R:3:forces:R:3 energy=-0.47951603907997453 pbc="F F F"
Al       0.00000000       0.00000000       0.00000000       0.00000000       0.00000000       0.13191552
Al       0.00000000       0.00000000       5.64242424       0.00000000       0.00000000      -0.13191552
2
Properties=species:S:1:pos:R:3:forces:R:3 energy=-0.47155057095844954 pbc="F F F"
Al       0.00000000       0.00000000       0.00000000       0.00000000       0.00000000       0.14161533
Al       0.00000000       0.00000000       5.70202020       0.00000000       0.00000000      -0.14161533
2
Properties=species:S:1:pos:R:3:forces:R:3 energy=-0.46234246809684537 pbc="F F F"
Al       0.00000000       0.00000000       0.00000000       0.00000000       0.00000000       0.16406564
Al       0.00000000       0.00000000       5.76161616       0.00000000       0.00000000      -0.16406564
2
Properties=species:S:1:pos:R:3:forces:R:3 energy=-0.4530472488412121 pbc="F F F"
Al       0.00000000       0.00000000       0.00000000       0.00000000       0.00000000       0.13748406
Al       0.00000000       0.00000000       5.82121212       0.00000000       0.00000000      -0.13748406
2
Properties=species:S:1:pos:R:3:forces:R:3 energy=-0.44669248946897194 pbc="F F F"
Al       0.00000000       0.00000000       0.00000000       0.00000000       0.00000000       0.07544332
Al       0.00000000       0.00000000       5.88080808       0.00000000       0.00000000      -0.07544332
2
Properties=species:S:1:pos:R:3:forces:R:3 energy=-0.4437490171003514 pbc="F F F"
Al       0.00000000       0.00000000       0.00000000       0.00000000       0.00000000       0.02689332
Al       0.00000000       0.00000000       5.94040404       0.00000000       0.00000000      -0.02689332
2
Properties=species:S:1:pos:R:3:forces:R:3 energy=-0.4428510456809782 pbc="F F F"
Al       0.00000000       0.00000000       0.00000000       0.00000000       0.00000000       0.00916749
Al       0.00000000       0.00000000       6.00000000       0.00000000       0.00000000      -0.00916749
