2
Properties=species:S:1:pos:R:3:forces:R:3 energy=8094.379831226472 pbc="F F F"
Ar       0.00000000       0.00000000       0.00000000       0.00000000       0.00000000 -173859.15625000
Ar       0.00000000       0.00000000       0.10000000       0.00000000       0.00000000  173859.15625000
2
Properties=species:S:1:pos:R:3:forces:R:3 energy=2697.366403492096 pbc="F F F"
Ar       0.00000000       0.00000000       0.00000000       0.00000000       0.00000000  -43352.75000000
Ar       0.00000000       0.00000000       0.15959596       0.00000000       0.00000000   43352.75000000
2
Properties=species:S:1:pos:R:3:forces:R:3 energy=1136.6052950936587 pbc="F F F"
Ar       0.00000000       0.00000000       0.00000000       0.00000000       0.00000000  -14983.61523438
Ar       0.00000000       0.00000000       0.21919192       0.00000000       0.00000000   14983.61523438
2
Properties=species:S:1:pos:R:3:forces:R:3 energy=548.4408663843052 pbc="F F F"
Ar       0.00000000       0.00000000       0.00000000       0.00000000       0.00000000   -6254.83691406
Ar       0.00000000       0.00000000       0.27878788       0.00000000       0.00000000    6254.83691406
2
Properties=species:S:1:pos:R:3:forces:R:3 energy=288.4636935390783 pbc="F F F"
Ar       0.00000000       0.00000000       0.00000000       0.00000000       0.00000000   -2951.46728516
Ar       0.00000000       0.00000000       0.33838384       0.00000000       0.00000000    2951.46728516
2
Properties=species:S:1:pos:R:3:forces:R:3 energy=160.9068850816538 pbc="F F F"
Ar       0.00000000       0.00000000       0.00000000       0.00000000       0.00000000   -1512.61914062
Ar       0.00000000       0.00000000       0.39797980       0.00000000       0.00000000    1512.61914062
2
Properties=species:S:1:pos:R:3:forces:R:3 energy=93.71366306584967 pbc="F F F"
Ar       0.00000000       0.00000000       0.00000000       0.00000000       0.00000000    -821.44329834
Ar       0.00000000       0.00000000       0.45757576       0.00000000       0.00000000     821.44329834
2
Properties=species:S:1:pos:R:3:forces:R:3 energy=56.474206946112666 pbc="F F F"
Ar       0.00000000       0.00000000       0.00000000       0.00000000       0.00000000    -465.67428589
Ar       0.00000000       0.00000000       0.51717172       0.00000000       0.00000000     465.67428589
2
Properties=species:S:1:pos:R:3:forces:R:3 energy=35.022844440787516 pbc="F F F"
Ar       0.00000000       0.00000000       0.00000000       0.00000000       0.00000000    -273.10284424
Ar       0.00000000       0.00000000       0.57676768       0.00000000       0.00000000     273.10284424
2
Properties=species:S:1:pos:R:3:forces:R:3 energy=22.273493113552888 pbc="F F F"
Ar       0.00000000       0.00000000       0.00000000       0.00000000       0.00000000    -164.77644348
Ar       0.00000000       0.00000000       0.63636364       0.00000000       0.00000000     164.77644348
2
Properties=species:S:1:pos:R:3:forces:R:3 energy=14.491328820235713 pbc="F F F"
Ar       0.00000000       0.00000000       0.00000000       0.00000000       0.00000000    -101.91043091
Ar       0.00000000       0.00000000       0.69595960       0.00000000       0.00000000     101.91043091
2
Properties=species:S:1:pos:R:3:forces:R:3 energy=9.627674159143584 pbc="F F F"
Ar       0.00000000       0.00000000       0.00000000       0.00000000       0.00000000     -64.45045471
Ar       0.00000000       0.00000000       0.75555556       0.00000000       0.00000000      64.45045471
2
Properties=species:S:1:pos:R:3:forces:R:3 energy=6.522042017061236 pbc="F F F"
Ar       0.00000000       0.00000000       0.00000000       0.00000000       0.00000000     -41.60496521
Ar       0.00000000       0.00000000       0.81515152       0.00000000       0.00000000      41.60496521
2
Properties=species:S:1:pos:R:3:forces:R:3 energy=4.499200064337226 pbc="F F F"
Ar       0.00000000       0.00000000       0.00000000       0.00000000       0.00000000     -27.37400055
Ar       0.00000000       0.00000000       0.87474747       0.00000000       0.00000000      27.37400055
2
Properties=species:S:1:pos:R:3:forces:R:3 energy=3.1570308989021436 pbc="F F F"
Ar       0.00000000       0.00000000       0.00000000       0.00000000       0.00000000     -18.33610535
Ar       0.00000000       0.00000000       0.93434343       0.00000000       0.00000000      18.33610535
2
Properties=species:S:1:pos:R:3:forces:R:3 energy=2.250561461622828 pbc="F F F"
Ar       0.00000000       0.00000000       0.00000000       0.00000000       0.00000000     -12.50094032
Ar       0.00000000       0.00000000       0.99393939       0.00000000       0.00000000      12.50094032
2
Properties=species:S:1:pos:R:3:forces:R:3 energy=1.6274781857922436 pbc="F F F"
Ar       0.00000000       0.00000000       0.00000000       0.00000000       0.00000000      -8.67054272
Ar       0.00000000       0.00000000       1.05353535       0.00000000       0.00000000       8.67054272
2
Properties=species:S:1:pos:R:3:forces:R:3 energy=1.1923195257875925 pbc="F F F"
Ar       0.00000000       0.00000000       0.00000000       0.00000000       0.00000000      -6.09741640
Ar       0.00000000       0.00000000       1.11313131       0.00000000       0.00000000       6.09741640
2
Properties=species:S:1:pos:R:3:forces:R:3 energy=0.8848712903936942 pbc="F F F"
Ar       0.00000000       0.00000000       0.00000000       0.00000000       0.00000000      -4.32811069
Ar       0.00000000       0.00000000       1.17272727       0.00000000       0.00000000       4.32811069
2
Properties=species:S:1:pos:R:3:forces:R:3 energy=0.6658139762216474 pbc="F F F"
Ar       0.00000000       0.00000000       0.00000000       0.00000000       0.00000000      -3.09693289
Ar       0.00000000       0.00000000       1.23232323       0.00000000       0.00000000       3.09693289
2
Properties=species:S:1:pos:R:3:forces:R:3 energy=0.5083862300076106 pbc="F F F"
Ar       0.00000000       0.00000000       0.00000000       0.00000000       0.00000000      -2.23790216
Ar       0.00000000       0.00000000       1.29191919       0.00000000       0.00000000       2.23790216
2
Properties=species:S:1:pos:R:3:forces:R:3 energy=0.3938663083154352 pbc="F F F"
Ar       0.00000000       0.00000000       0.00000000       0.00000000       0.00000000      -1.64199865
Ar       0.00000000       0.00000000       1.35151515       0.00000000       0.00000000       1.64199865
2
Properties=species:S:1:pos:R:3:forces:R:3 energy=0.30901379608172747 pbc="F F F"
Ar       0.00000000       0.00000000       0.00000000       0.00000000       0.00000000      -1.23086047
Ar       0.00000000       0.00000000       1.41111111       0.00000000       0.00000000       1.23086047
2
Properties=species:S:1:pos:R:3:forces:R:3 energy=0.24469588282058738 pbc="F F F"
Ar       0.00000000       0.00000000       0.00000000       0.00000000       0.00000000      -0.94425511
Ar       0.00000000       0.00000000       1.47070707       0.00000000       0.00000000       0.94425511
2
Properties=species:S:1:pos:R:3:forces:R:3 energy=0.1948479280187602 pbc="F F F"
Ar       0.00000000       0.00000000       0.00000000       0.00000000       0.00000000      -0.73965293
Ar       0.00000000       0.00000000       1.53030303       0.00000000       0.00000000       0.73965293
2
Properties=species:S:1:pos:R:3:forces:R:3 energy=0.15544785380844064 pbc="F F F"
Ar       0.00000000       0.00000000       0.00000000       0.00000000       0.00000000      -0.59007663
Ar       0.00000000       0.00000000       1.58989899       0.00000000       0.00000000       0.59007663
2
Properties=species:S:1:pos:R:3:forces:R:3 energy=0.12377952542456158 pbc="F F F"
Ar       0.00000000       0.00000000       0.00000000       0.00000000       0.00000000      -0.47771776
Ar       0.00000000       0.00000000       1.64949495       0.00000000       0.00000000       0.47771776
2
Properties=species:S:1:pos:R:3:forces:R:3 energy=0.09801777650927501 pbc="F F F"
Ar       0.00000000       0.00000000       0.00000000       0.00000000       0.00000000      -0.39017382
Ar       0.00000000       0.00000000       1.70909091       0.00000000       0.00000000       0.39017382
2
Properties=species:S:1:pos:R:3:forces:R:3 energy=0.07694210676629051 pbc="F F F"
Ar       0.00000000       0.00000000       0.00000000       0.00000000       0.00000000      -0.31946298
Ar       0.00000000       0.00000000       1.76868687       0.00000000       0.00000000       0.31946298
2
Properties=species:S:1:pos:R:3:forces:R:3 energy=0.05969344713888587 pbc="F F F"
Ar       0.00000000       0.00000000       0.00000000       0.00000000       0.00000000      -0.26125586
Ar       0.00000000       0.00000000       1.82828283       0.00000000       0.00000000       0.26125586
2
Properties=species:S:1:pos:R:3:forces:R:3 energy=0.045596622915698326 pbc="F F F"
Ar       0.00000000       0.00000000       0.00000000       0.00000000       0.00000000      -0.21344002
Ar       0.00000000       0.00000000       1.88787879       0.00000000       0.00000000       0.21344002
2
Properties=species:S:1:pos:R:3:forces:R:3 energy=0.03407127793391674 pbc="F F F"
Ar       0.00000000       0.00000000       0.00000000       0.00000000       0.00000000      -0.17477903
Ar       0.00000000       0.00000000       1.94747475       0.00000000       0.00000000       0.17477903
2
Properties=species:S:1:pos:R:3:forces:R:3 energy=0.024602898625378573 pbc="F F F"
Ar       0.00000000       0.00000000       0.00000000       0.00000000       0.00000000      -0.14424980
Ar       0.00000000       0.00000000       2.00707071       0.00000000       0.00000000       0.14424980
2
Properties=species:S:1:pos:R:3:forces:R:3 energy=0.01673592492836513 pbc="F F F"
Ar       0.00000000       0.00000000       0.00000000       0.00000000       0.00000000      -0.12086953
Ar       0.00000000       0.00000000       2.06666667       0.00000000       0.00000000       0.12086953
2
Properties=species:S:1:pos:R:3:forces:R:3 energy=0.010073545954103272 pbc="F F F"
Ar       0.00000000       0.00000000       0.00000000       0.00000000       0.00000000      -0.10365730
Ar       0.00000000       0.00000000       2.12626263       0.00000000       0.00000000       0.10365730
2
Properties=species:S:1:pos:R:3:forces:R:3 energy=0.004286559373056716 pbc="F F F"
Ar       0.00000000       0.00000000       0.00000000       0.00000000       0.00000000      -0.09124210
Ar       0.00000000       0.00000000       2.18585859       0.00000000       0.00000000       0.09124210
2
Properties=species:S:1:pos:R:3:forces:R:3 energy=-0.0008769306279841661 pbc="F F F"
Ar       0.00000000       0.00000000       0.00000000       0.00000000       0.00000000      -0.08260421
Ar       0.00000000       0.00000000       2.24545455       0.00000000       0.00000000       0.08260421
2
Properties=species:S:1:pos:R:3:forces:R:3 energy=-0.005618016936984695 pbc="F F F"
Ar       0.00000000       0.00000000       0.00000000       0.00000000       0.00000000      -0.07691867
Ar       0.00000000       0.00000000       2.30505051       0.00000000       0.00000000       0.07691867
2
Properties=species:S:1:pos:R:3:forces:R:3 energy=-0.010085804316882808 pbc="F F F"
Ar       0.00000000       0.00000000       0.00000000       0.00000000       0.00000000      -0.07328942
Ar       0.00000000       0.00000000       2.36464646       0.00000000       0.00000000       0.07328942
2
Properties=species:S:1:pos:R:3:forces:R:3 energy=-0.014377408025172643 pbc="F F F"
Ar       0.00000000       0.00000000       0.00000000       0.00000000       0.00000000      -0.07087062
Ar       0.00000000       0.00000000       2.42424242       0.00000000       0.00000000       0.07087062
2
Properties=species:S:1:pos:R:3:forces:R:3 energy=-0.018542986504111004 pbc="F F F"
Ar       0.00000000       0.00000000       0.00000000       0.00000000       0.00000000      -0.06895981
Ar       0.00000000       0.00000000       2.48383838       0.00000000       0.00000000       0.06895981
2
Properties=species:S:1:pos:R:3:forces:R:3 energy=-0.022596696636536833 pbc="F F F"
Ar       0.00000000       0.00000000       0.00000000       0.00000000       0.00000000      -0.06704667
Ar       0.00000000       0.00000000       2.54343434       0.00000000       0.00000000       0.06704667
2
Properties=species:S:1:pos:R:3:forces:R:3 energy=-0.026528017716936907 pbc="F F F"
Ar       0.00000000       0.00000000       0.00000000       0.00000000       0.00000000      -0.06481655
Ar       0.00000000       0.00000000       2.60303030       0.00000000       0.00000000       0.06481655
2
Properties=species:S:1:pos:R:3:forces:R:3 energy=-0.030312828995883622 pbc="F F F"
Ar       0.00000000       0.00000000       0.00000000       0.00000000       0.00000000      -0.06211463
Ar       0.00000000       0.00000000       2.66262626       0.00000000       0.00000000       0.06211463
2
Properties=species:S:1:pos:R:3:forces:R:3 energy=-0.033921223401196604 pbc="F F F"
Ar       0.00000000       0.00000000       0.00000000       0.00000000       0.00000000      -0.05889360
Ar       0.00000000       0.00000000       2.72222222       0.00000000       0.00000000       0.05889360
2
Properties=species:S:1:pos:R:3:forces:R:3 energy=-0.03732242914190961 pbc="F F F"
Ar       0.00000000       0.00000000       0.00000000       0.00000000       0.00000000      -0.05516822
Ar       0.00000000       0.00000000       2.78181818       0.00000000       0.00000000       0.05516822
2
Properties=species:S:1:pos:R:3:forces:R:3 energy=-0.04048788104638884 pbc="F F F"
Ar       0.00000000       0.00000000       0.00000000       0.00000000       0.00000000      -0.05099255
Ar       0.00000000       0.00000000       2.84141414       0.00000000       0.00000000       0.05099255
2
Properties=species:S:1:pos:R:3:forces:R:3 energy=-0.04339316277026327 pbc="F F F"
Ar       0.00000000       0.00000000       0.00000000       0.00000000       0.00000000      -0.04645677
Ar       0.00000000       0.00000000       2.90101010       0.00000000       0.00000000       0.04645677
2
Properties=species:S:1:pos:R:3:forces:R:3 energy=-0.04602045926737863 pbc="F F F"
Ar       0.00000000       0.00000000       0.00000000       0.00000000       0.00000000      -0.04168576
Ar       0.00000000       0.00000000       2.96060606       0.00000000       0.00000000       0.04168576
2
Properties=species:S:1:pos:R:3:forces:R:3 energy=-0.04836008576923875 pbc="F F F"
Ar       0.00000000       0.00000000       0.00000000       0.00000000       0.00000000      -0.03682937
Ar       0.00000000       0.00000000       3.02020202       0.00000000       0.00000000       0.03682937
2
Properties=species:S:1:pos:R:3:forces:R:3 energy=-0.0504115692473823 pbc="F F F"
Ar       0.00000000       0.00000000       0.00000000       0.00000000       0.00000000      -0.03204125
Ar       0.00000000       0.00000000       3.07979798       0.00000000       0.00000000       0.03204125
2
Properties=species:S:1:pos:R:3:forces:R:3 energy=-0.052183197109042546 pbc="F F F"
Ar       0.00000000       0.00000000       0.00000000       0.00000000       0.00000000      -0.02745705
Ar       0.00000000       0.00000000       3.13939394       0.00000000       0.00000000       0.02745705
2
Properties=species:S:1:pos:R:3:forces:R:3 energy=-0.05369036847745613 pbc="F F F"
Ar       0.00000000       0.00000000       0.00000000       0.00000000       0.00000000      -0.02317986
Ar       0.00000000       0.00000000       3.19898990       0.00000000       0.00000000       0.02317986
2
Properties=species:S:1:pos:R:3:forces:R:3 energy=-0.0549534938625897 pbc="F F F"
Ar       0.00000000       0.00000000       0.00000000       0.00000000       0.00000000      -0.01927615
Ar       0.00000000       0.00000000       3.25858586       0.00000000       0.00000000       0.01927615
2
Properties=species:S:1:pos:R:3:forces:R:3 energy=-0.055996020186559595 pbc="F F F"
Ar       0.00000000       0.00000000       0.00000000       0.00000000       0.00000000      -0.01577912
Ar       0.00000000       0.00000000       3.31818182       0.00000000       0.00000000       0.01577912
2
Properties=species:S:1:pos:R:3:forces:R:3 energy=-0.056842483076259415 pbc="F F F"
Ar       0.00000000       0.00000000       0.00000000       0.00000000       0.00000000      -0.01269581
Ar       0.00000000       0.00000000       3.37777778       0.00000000       0.00000000       0.01269581
2
Properties=species:S:1:pos:R:3:forces:R:3 energy=-0.05751723660135373 pbc="F F F"
Ar       0.00000000       0.00000000       0.00000000       0.00000000       0.00000000      -0.01001355
Ar       0.00000000       0.00000000       3.43737374       0.00000000       0.00000000       0.01001355
2
Properties=species:S:1:pos:R:3:forces:R:3 energy=-0.058043437331947126 pbc="F F F"
Ar       0.00000000       0.00000000       0.00000000       0.00000000       0.00000000      -0.00770455
Ar       0.00000000       0.00000000       3.49696970       0.00000000       0.00000000       0.00770455
2
Properties=species:S:1:pos:R:3:forces:R:3 energy=-0.0584422067677207 pbc="F F F"
Ar       0.00000000       0.00000000       0.00000000       0.00000000       0.00000000      -0.00572975
Ar       0.00000000       0.00000000       3.55656566       0.00000000       0.00000000       0.00572975
2
Properties=species:S:1:pos:R:3:forces:R:3 energy=-0.05873207821204704 pbc="F F F"
Ar       0.00000000       0.00000000       0.00000000       0.00000000       0.00000000      -0.00404194
Ar       0.00000000       0.00000000       3.61616162       0.00000000       0.00000000       0.00404194
2
Properties=species:S:1:pos:R:3:forces:R:3 energy=-0.05892863560030287 pbc="F F F"
Ar       0.00000000       0.00000000       0.00000000       0.00000000       0.00000000      -0.00258929
Ar       0.00000000       0.00000000       3.67575758       0.00000000       0.00000000       0.00258929
2
Properties=species:S:1:pos:R:3:forces:R:3 energy=-0.05904433175708484 pbc="F F F"
Ar       0.00000000       0.00000000       0.00000000       0.00000000       0.00000000      -0.00131956
Ar       0.00000000       0.00000000       3.73535354       0.00000000       0.00000000       0.00131956
2
Properties=species:S:1:pos:R:3:forces:R:3 energy=-0.05908859262032937 pbc="F F F"
Ar       0.00000000       0.00000000       0.00000000       0.00000000       0.00000000      -0.00018479
Ar       0.00000000       0.00000000       3.79494949       0.00000000       0.00000000       0.00018479
2
Properties=species:S:1:pos:R:3:forces:R:3 energy=-0.05906823714616554 pbc="F F F"
Ar       0.00000000       0.00000000       0.00000000       0.00000000       0.00000000       0.00085501
Ar       0.00000000       0.00000000       3.85454545       0.00000000       0.00000000      -0.00085501
2
Properties=species:S:1:pos:R:3:forces:R:3 energy=-0.05898797353797249 pbc="F F F"
Ar       0.00000000       0.00000000       0.00000000       0.00000000       0.00000000       0.00182933
Ar       0.00000000       0.00000000       3.91414141       0.00000000       0.00000000      -0.00182933
2
Properties=species:S:1:pos:R:3:forces:R:3 energy=-0.05885111728945742 pbc="F F F"
Ar       0.00000000       0.00000000       0.00000000       0.00000000       0.00000000       0.00275698
Ar       0.00000000       0.00000000       3.97373737       0.00000000       0.00000000      -0.00275698
2
Properties=species:S:1:pos:R:3:forces:R:3 energy=-0.05866010052298358 pbc="F F F"
Ar       0.00000000       0.00000000       0.00000000       0.00000000       0.00000000       0.00364738
Ar       0.00000000       0.00000000       4.03333333       0.00000000       0.00000000      -0.00364738
2
Properties=species:S:1:pos:R:3:forces:R:3 energy=-0.058417056537166376 pbc="F F F"
Ar       0.00000000       0.00000000       0.00000000       0.00000000       0.00000000       0.00450339
Ar       0.00000000       0.00000000       4.09292929       0.00000000       0.00000000      -0.00450339
2
Properties=species:S:1:pos:R:3:forces:R:3 energy=-0.05812404440823482 pbc="F F F"
Ar       0.00000000       0.00000000       0.00000000       0.00000000       0.00000000       0.00532363
Ar       0.00000000       0.00000000       4.15252525       0.00000000       0.00000000      -0.00532363
2
Properties=species:S:1:pos:R:3:forces:R:3 energy=-0.05778331606500396 pbc="F F F"
Ar       0.00000000       0.00000000       0.00000000       0.00000000       0.00000000       0.00610359
Ar       0.00000000       0.00000000       4.21212121       0.00000000       0.00000000      -0.00610359
2
Properties=species:S:1:pos:R:3:forces:R:3 energy=-0.05739749634824318 pbc="F F F"
Ar       0.00000000       0.00000000       0.00000000       0.00000000       0.00000000       0.00683548
Ar       0.00000000       0.00000000       4.27171717       0.00000000       0.00000000      -0.00683548
2
Properties=species:S:1:pos:R:3:forces:R:3 energy=-0.056969783483901616 pbc="F F F"
Ar       0.00000000       0.00000000       0.00000000       0.00000000       0.00000000       0.00750705
Ar       0.00000000       0.00000000       4.33131313       0.00000000       0.00000000      -0.00750705
2
Properties=species:S:1:pos:R:3:forces:R:3 energy=-0.056504245491428275 pbc="F F F"
Ar       0.00000000       0.00000000       0.00000000       0.00000000       0.00000000       0.00810152
Ar       0.00000000       0.00000000       4.39090909       0.00000000       0.00000000      -0.00810152
2
Properties=species:S:1:pos:R:3:forces:R:3 energy=-0.056006064188044095 pbc="F F F"
Ar       0.00000000       0.00000000       0.00000000       0.00000000       0.00000000       0.00859933
Ar       0.00000000       0.00000000       4.45050505       0.00000000       0.00000000      -0.00859933
2
Properties=species:S:1:pos:R:3:forces:R:3 energy=-0.05548157548998099 pbc="F F F"
Ar       0.00000000       0.00000000       0.00000000       0.00000000       0.00000000       0.00898173
Ar       0.00000000       0.00000000       4.51010101       0.00000000       0.00000000      -0.00898173
2
Properties=species:S:1:pos:R:3:forces:R:3 energy=-0.05493807076866636 pbc="F F F"
Ar       0.00000000       0.00000000       0.00000000       0.00000000       0.00000000       0.00923553
Ar       0.00000000       0.00000000       4.56969697       0.00000000       0.00000000      -0.00923553
2
Properties=species:S:1:pos:R:3:forces:R:3 energy=-0.05438341966946487 pbc="F F F"
Ar       0.00000000       0.00000000       0.00000000       0.00000000       0.00000000       0.00935638
Ar       0.00000000       0.00000000       4.62929293       0.00000000       0.00000000      -0.00935638
2
Properties=species:S:1:pos:R:3:forces:R:3 energy=-0.05382540589506905 pbc="F F F"
Ar       0.00000000       0.00000000       0.00000000       0.00000000       0.00000000       0.00935002
Ar       0.00000000       0.00000000       4.68888889       0.00000000       0.00000000      -0.00935002
2
Properties=species:S:1:pos:R:3:forces:R:3 energy=-0.05327123234136204 pbc="F F F"
Ar       0.00000000       0.00000000       0.00000000       0.00000000       0.00000000       0.00922985
Ar       0.00000000       0.00000000       4.74848485       0.00000000       0.00000000      -0.00922985
2
Properties=species:S:1:pos:R:3:forces:R:3 energy=-0.05272723131672977 pbc="F F F"
Ar       0.00000000       0.00000000       0.00000000       0.00000000       0.00000000       0.00901154
Ar       0.00000000       0.00000000       4.80808081       0.00000000       0.00000000      -0.00901154
2
Properties=species:S:1:pos:R:3:forces:R:3 energy=-0.05219883161392075 pbc="F F F"
Ar       0.00000000       0.00000000       0.00000000       0.00000000       0.00000000       0.00870729
Ar       0.00000000       0.00000000       4.86767677       0.00000000       0.00000000      -0.00870729
2
Properties=species:S:1:pos:R:3:forces:R:3 energy=-0.05169099690636796 pbc="F F F"
Ar       0.00000000       0.00000000       0.00000000       0.00000000       0.00000000       0.00832164
Ar       0.00000000       0.00000000       4.92727273       0.00000000       0.00000000      -0.00832164
2
Properties=species:S:1:pos:R:3:forces:R:3 energy=-0.051208617211154585 pbc="F F F"
Ar       0.00000000       0.00000000       0.00000000       0.00000000       0.00000000       0.00785246
Ar       0.00000000       0.00000000       4.98686869       0.00000000       0.00000000      -0.00785246
2
Properties=species:S:1:pos:R:3:forces:R:3 energy=-0.05075679390247213 pbc="F F F"
Ar       0.00000000       0.00000000       0.00000000       0.00000000       0.00000000       0.00729723
Ar       0.00000000       0.00000000       5.04646465       0.00000000       0.00000000      -0.00729723
2
Properties=species:S:1:pos:R:3:forces:R:3 energy=-0.050340420462719714 pbc="F F F"
Ar       0.00000000       0.00000000       0.00000000       0.00000000       0.00000000       0.00666458
Ar       0.00000000       0.00000000       5.10606061       0.00000000       0.00000000      -0.00666458
2
Properties=species:S:1:pos:R:3:forces:R:3 energy=-0.04996331407839031 pbc="F F F"
Ar       0.00000000       0.00000000       0.00000000       0.00000000       0.00000000       0.00598643
Ar       0.00000000       0.00000000       5.16565657       0.00000000       0.00000000      -0.00598643
2
Properties=species:S:1:pos:R:3:forces:R:3 energy=-0.04962653213183666 pbc="F F F"
Ar       0.00000000       0.00000000       0.00000000       0.00000000       0.00000000       0.00532582
Ar       0.00000000       0.00000000       5.22525253       0.00000000       0.00000000      -0.00532582
2
Properties=species:S:1:pos:R:3:forces:R:3 energy=-0.049326650721175605 pbc="F F F"
Ar       0.00000000       0.00000000       0.00000000       0.00000000       0.00000000       0.00475848
Ar       0.00000000       0.00000000       5.28484848       0.00000000       0.00000000      -0.00475848
2
Properties=species:S:1:pos:R:3:forces:R:3 energy=-0.04905725524538222 pbc="F F F"
Ar       0.00000000       0.00000000       0.00000000       0.00000000       0.00000000       0.00428959
Ar       0.00000000       0.00000000       5.34444444       0.00000000       0.00000000      -0.00428959
2
Properties=species:S:1:pos:R:3:forces:R:3 energy=-0.048817141440641205 pbc="F F F"
Ar       0.00000000       0.00000000       0.00000000       0.00000000       0.00000000       0.00372707
Ar       0.00000000       0.00000000       5.40404040       0.00000000       0.00000000      -0.00372707
2
Properties=species:S:1:pos:R:3:forces:R:3 energy=-0.048619443566009925 pbc="F F F"
Ar       0.00000000       0.00000000       0.00000000       0.00000000       0.00000000       0.00286389
Ar       0.00000000       0.00000000       5.46363636       0.00000000       0.00000000      -0.00286389
2
Properties=species:S:1:pos:R:3:forces:R:3 energy=-0.04847496672516347 pbc="F F F"
Ar       0.00000000       0.00000000       0.00000000       0.00000000       0.00000000       0.00205018
Ar       0.00000000       0.00000000       5.52323232       0.00000000       0.00000000      -0.00205018
2
Properties=species:S:1:pos:R:3:forces:R:3 energy=-0.04836394936392122 pbc="F F F"
Ar       0.00000000       0.00000000       0.00000000       0.00000000       0.00000000       0.00176307
Ar       0.00000000       0.00000000       5.58282828       0.00000000       0.00000000      -0.00176307
2
Properties=species:S:1:pos:R:3:forces:R:3 energy=-0.04825997965996041 pbc="F F F"
Ar       0.00000000       0.00000000       0.00000000       0.00000000       0.00000000       0.00170792
Ar       0.00000000       0.00000000       5.64242424       0.00000000       0.00000000      -0.00170792
2
Properties=species:S:1:pos:R:3:forces:R:3 energy=-0.04816876917269653 pbc="F F F"
Ar       0.00000000       0.00000000       0.00000000       0.00000000       0.00000000       0.00125229
Ar       0.00000000       0.00000000       5.70202020       0.00000000       0.00000000      -0.00125229
2
Properties=species:S:1:pos:R:3:forces:R:3 energy=-0.04811953492339678 pbc="F F F"
Ar       0.00000000       0.00000000       0.00000000       0.00000000       0.00000000       0.00038853
Ar       0.00000000       0.00000000       5.76161616       0.00000000       0.00000000      -0.00038853
2
Properties=species:S:1:pos:R:3:forces:R:3 energy=-0.048113846506643375 pbc="F F F"
Ar       0.00000000       0.00000000       0.00000000       0.00000000       0.00000000      -0.00006131
Ar       0.00000000       0.00000000       5.82121212       0.00000000       0.00000000       0.00006131
2
Properties=species:S:1:pos:R:3:forces:R:3 energy=-0.04811068612882413 pbc="F F F"
Ar       0.00000000       0.00000000       0.00000000       0.00000000       0.00000000       0.00025553
Ar       0.00000000       0.00000000       5.88080808       0.00000000       0.00000000      -0.00025553
2
Properties=species:S:1:pos:R:3:forces:R:3 energy=-0.048079464923272884 pbc="F F F"
Ar       0.00000000       0.00000000       0.00000000       0.00000000       0.00000000       0.00078449
Ar       0.00000000       0.00000000       5.94040404       0.00000000       0.00000000      -0.00078449
2
Properties=species:S:1:pos:R:3:forces:R:3 energy=-0.04802446134959955 pbc="F F F"
Ar       0.00000000       0.00000000       0.00000000       0.00000000       0.00000000       0.00097438
Ar       0.00000000       0.00000000       6.00000000       0.00000000       0.00000000      -0.00097438
