2
Properties=species:S:1:pos:R:3:forces:R:3 energy=1967.2007540780337 pbc="F F F"
Ar       0.00000000       0.00000000       0.00000000       0.00000000       0.00000000  -29324.13867188
Ar       0.00000000       0.00000000       0.18000000       0.00000000       0.00000000   29324.13867188
2
Properties=species:S:1:pos:R:3:forces:R:3 energy=883.8217257577212 pbc="F F F"
Ar       0.00000000       0.00000000       0.00000000       0.00000000       0.00000000  -11054.65820312
Ar       0.00000000       0.00000000       0.23878788       0.00000000       0.00000000   11054.65820312
2
Properties=species:S:1:pos:R:3:forces:R:3 energy=444.44788542885783 pbc="F F F"
Ar       0.00000000       0.00000000       0.00000000       0.00000000       0.00000000   -4882.35595703
Ar       0.00000000       0.00000000       0.29757576       0.00000000       0.00000000    4882.35595703
2
Properties=species:S:1:pos:R:3:forces:R:3 energy=240.603555602793 pbc="F F F"
Ar       0.00000000       0.00000000       0.00000000       0.00000000       0.00000000   -2394.79174805
Ar       0.00000000       0.00000000       0.35636364       0.00000000       0.00000000    2394.79174805
2
Properties=species:S:1:pos:R:3:forces:R:3 energy=137.15728181650508 pbc="F F F"
Ar       0.00000000       0.00000000       0.00000000       0.00000000       0.00000000   -1262.11572266
Ar       0.00000000       0.00000000       0.41515152       0.00000000       0.00000000    1262.11572266
2
Properties=species:S:1:pos:R:3:forces:R:3 energy=81.29320714431987 pbc="F F F"
Ar       0.00000000       0.00000000       0.00000000       0.00000000       0.00000000    -700.22882080
Ar       0.00000000       0.00000000       0.47393939       0.00000000       0.00000000     700.22882080
2
Properties=species:S:1:pos:R:3:forces:R:3 energy=49.72340206716437 pbc="F F F"
Ar       0.00000000       0.00000000       0.00000000       0.00000000       0.00000000    -403.91140747
Ar       0.00000000       0.00000000       0.53272727       0.00000000       0.00000000     403.91140747
2
Properties=species:S:1:pos:R:3:forces:R:3 energy=31.242000740892344 pbc="F F F"
Ar       0.00000000       0.00000000       0.00000000       0.00000000       0.00000000    -240.40876770
Ar       0.00000000       0.00000000       0.59151515       0.00000000       0.00000000     240.40876770
2
Properties=species:S:1:pos:R:3:forces:R:3 energy=20.103470202928325 pbc="F F F"
Ar       0.00000000       0.00000000       0.00000000       0.00000000       0.00000000    -146.94961548
Ar       0.00000000       0.00000000       0.65030303       0.00000000       0.00000000     146.94961548
2
Properties=species:S:1:pos:R:3:forces:R:3 energy=13.21971100844306 pbc="F F F"
Ar       0.00000000       0.00000000       0.00000000       0.00000000       0.00000000     -91.95416260
Ar       0.00000000       0.00000000       0.70909091       0.00000000       0.00000000      91.95416260
2
Properties=species:S:1:pos:R:3:forces:R:3 energy=8.868982485465454 pbc="F F F"
Ar       0.00000000       0.00000000       0.00000000       0.00000000       0.00000000     -58.77769089
Ar       0.00000000       0.00000000       0.76787879       0.00000000       0.00000000      58.77769089
2
Properties=species:S:1:pos:R:3:forces:R:3 energy=6.062171357007421 pbc="F F F"
Ar       0.00000000       0.00000000       0.00000000       0.00000000       0.00000000     -38.31685638
Ar       0.00000000       0.00000000       0.82666667       0.00000000       0.00000000      38.31685638
2
Properties=species:S:1:pos:R:3:forces:R:3 energy=4.21660034108297 pbc="F F F"
Ar       0.00000000       0.00000000       0.00000000       0.00000000       0.00000000     -25.43947220
Ar       0.00000000       0.00000000       0.88545455       0.00000000       0.00000000      25.43947220
2
Properties=species:S:1:pos:R:3:forces:R:3 energy=2.981289727734092 pbc="F F F"
Ar       0.00000000       0.00000000       0.00000000       0.00000000       0.00000000     -17.18462181
Ar       0.00000000       0.00000000       0.94424242       0.00000000       0.00000000      17.18462181
2
Properties=species:S:1:pos:R:3:forces:R:3 energy=2.1400929266354134 pbc="F F F"
Ar       0.00000000       0.00000000       0.00000000       0.00000000       0.00000000     -11.80972958
Ar       0.00000000       0.00000000       1.00303030       0.00000000       0.00000000      11.80972958
2
Properties=species:S:1:pos:R:3:forces:R:3 energy=1.5574166676162031 pbc="F F F"
Ar       0.00000000       0.00000000       0.00000000       0.00000000       0.00000000      -8.25064087
Ar       0.00000000       0.00000000       1.06181818       0.00000000       0.00000000       8.25064087
2
Properties=species:S:1:pos:R:3:forces:R:3 energy=1.147718447657582 pbc="F F F"
Ar       0.00000000       0.00000000       0.00000000       0.00000000       0.00000000      -5.83822966
Ar       0.00000000       0.00000000       1.12060606       0.00000000       0.00000000       5.83822966
2
Properties=species:S:1:pos:R:3:forces:R:3 energy=0.8565570818301784 pbc="F F F"
Ar       0.00000000       0.00000000       0.00000000       0.00000000       0.00000000      -4.16736889
Ar       0.00000000       0.00000000       1.17939394       0.00000000       0.00000000       4.16736889
2
Properties=species:S:1:pos:R:3:forces:R:3 energy=0.6479617653943961 pbc="F F F"
Ar       0.00000000       0.00000000       0.00000000       0.00000000       0.00000000      -2.99810004
Ar       0.00000000       0.00000000       1.23818182       0.00000000       0.00000000       2.99810004
2
Properties=species:S:1:pos:R:3:forces:R:3 energy=0.4972351331417645 pbc="F F F"
Ar       0.00000000       0.00000000       0.00000000       0.00000000       0.00000000      -2.17844677
Ar       0.00000000       0.00000000       1.29696970       0.00000000       0.00000000       2.17844677
2
Properties=species:S:1:pos:R:3:forces:R:3 energy=0.3869740625212124 pbc="F F F"
Ar       0.00000000       0.00000000       0.00000000       0.00000000       0.00000000      -1.60742712
Ar       0.00000000       0.00000000       1.35575758       0.00000000       0.00000000       1.60742712
2
Properties=species:S:1:pos:R:3:forces:R:3 energy=0.30482010047853214 pbc="F F F"
Ar       0.00000000       0.00000000       0.00000000       0.00000000       0.00000000      -1.21145689
Ar       0.00000000       0.00000000       1.41454545       0.00000000       0.00000000       1.21145689
2
Properties=species:S:1:pos:R:3:forces:R:3 energy=0.24222987290366385 pbc="F F F"
Ar       0.00000000       0.00000000       0.00000000       0.00000000       0.00000000      -0.93375593
Ar       0.00000000       0.00000000       1.47333333       0.00000000       0.00000000       0.93375593
2
Properties=species:S:1:pos:R:3:forces:R:3 energy=0.19350789589903591 pbc="F F F"
Ar       0.00000000       0.00000000       0.00000000       0.00000000       0.00000000      -0.73438340
Ar       0.00000000       0.00000000       1.53212121       0.00000000       0.00000000       0.73438340
2
Properties=species:S:1:pos:R:3:forces:R:3 energy=0.15485289195969232 pbc="F F F"
Ar       0.00000000       0.00000000       0.00000000       0.00000000       0.00000000      -0.58790344
Ar       0.00000000       0.00000000       1.59090909       0.00000000       0.00000000       0.58790344
2
Properties=species:S:1:pos:R:3:forces:R:3 energy=0.12368309390483442 pbc="F F F"
Ar       0.00000000       0.00000000       0.00000000       0.00000000       0.00000000      -0.47738436
Ar       0.00000000       0.00000000       1.64969697       0.00000000       0.00000000       0.47738436
2
Properties=species:S:1:pos:R:3:forces:R:3 energy=0.09825455022691644 pbc="F F F"
Ar       0.00000000       0.00000000       0.00000000       0.00000000       0.00000000      -0.39096940
Ar       0.00000000       0.00000000       1.70848485       0.00000000       0.00000000       0.39096940
2
Properties=species:S:1:pos:R:3:forces:R:3 energy=0.07739496242629984 pbc="F F F"
Ar       0.00000000       0.00000000       0.00000000       0.00000000       0.00000000      -0.32098427
Ar       0.00000000       0.00000000       1.76727273       0.00000000       0.00000000       0.32098427
2
Properties=species:S:1:pos:R:3:forces:R:3 energy=0.060276207698251885 pbc="F F F"
Ar       0.00000000       0.00000000       0.00000000       0.00000000       0.00000000      -0.26323041
Ar       0.00000000       0.00000000       1.82606061       0.00000000       0.00000000       0.26323041
2
Properties=species:S:1:pos:R:3:forces:R:3 energy=0.04624681737995688 pbc="F F F"
Ar       0.00000000       0.00000000       0.00000000       0.00000000       0.00000000      -0.21564150
Ar       0.00000000       0.00000000       1.88484848       0.00000000       0.00000000       0.21564150
2
Properties=species:S:1:pos:R:3:forces:R:3 energy=0.034746443639302085 pbc="F F F"
Ar       0.00000000       0.00000000       0.00000000       0.00000000       0.00000000      -0.17701343
Ar       0.00000000       0.00000000       1.94363636       0.00000000       0.00000000       0.17701343
2
Properties=species:S:1:pos:R:3:forces:R:3 energy=0.025278018416084784 pbc="F F F"
Ar       0.00000000       0.00000000       0.00000000       0.00000000       0.00000000      -0.14636050
Ar       0.00000000       0.00000000       2.00242424       0.00000000       0.00000000       0.14636050
2
Properties=species:S:1:pos:R:3:forces:R:3 energy=0.017400330882839904 pbc="F F F"
Ar       0.00000000       0.00000000       0.00000000       0.00000000       0.00000000      -0.12273798
Ar       0.00000000       0.00000000       2.06121212       0.00000000       0.00000000       0.12273798
2
Properties=species:S:1:pos:R:3:forces:R:3 energy=0.010727572490448867 pbc="F F F"
Ar       0.00000000       0.00000000       0.00000000       0.00000000       0.00000000      -0.10520927
Ar       0.00000000       0.00000000       2.12000000       0.00000000       0.00000000       0.10520927
2
Properties=species:S:1:pos:R:3:forces:R:3 energy=0.004936065019405338 pbc="F F F"
Ar       0.00000000       0.00000000       0.00000000       0.00000000       0.00000000      -0.09250294
Ar       0.00000000       0.00000000       2.17878788       0.00000000       0.00000000       0.09250294
2
Properties=species:S:1:pos:R:3:forces:R:3 energy=-0.00022235025787730248 pbc="F F F"
Ar       0.00000000       0.00000000       0.00000000       0.00000000       0.00000000      -0.08355771
Ar       0.00000000       0.00000000       2.23757576       0.00000000       0.00000000       0.08355771
2
Properties=species:S:1:pos:R:3:forces:R:3 energy=-0.004946834414118431 pbc="F F F"
Ar       0.00000000       0.00000000       0.00000000       0.00000000       0.00000000      -0.07759824
Ar       0.00000000       0.00000000       2.29636364       0.00000000       0.00000000       0.07759824
2
Properties=species:S:1:pos:R:3:forces:R:3 energy=-0.009387697471922748 pbc="F F F"
Ar       0.00000000       0.00000000       0.00000000       0.00000000       0.00000000      -0.07376599
Ar       0.00000000       0.00000000       2.35515152       0.00000000       0.00000000       0.07376599
2
Properties=species:S:1:pos:R:3:forces:R:3 energy=-0.013645337165019995 pbc="F F F"
Ar       0.00000000       0.00000000       0.00000000       0.00000000       0.00000000      -0.07123517
Ar       0.00000000       0.00000000       2.41393939       0.00000000       0.00000000       0.07123517
2
Properties=species:S:1:pos:R:3:forces:R:3 energy=-0.017774851228135838 pbc="F F F"
Ar       0.00000000       0.00000000       0.00000000       0.00000000       0.00000000      -0.06930372
Ar       0.00000000       0.00000000       2.47272727       0.00000000       0.00000000       0.06930372
2
Properties=species:S:1:pos:R:3:forces:R:3 energy=-0.02179512871573909 pbc="F F F"
Ar       0.00000000       0.00000000       0.00000000       0.00000000       0.00000000      -0.06744722
Ar       0.00000000       0.00000000       2.53151515       0.00000000       0.00000000       0.06744722
2
Properties=species:S:1:pos:R:3:forces:R:3 energy=-0.025699786339421677 pbc="F F F"
Ar       0.00000000       0.00000000       0.00000000       0.00000000       0.00000000      -0.06532919
Ar       0.00000000       0.00000000       2.59030303       0.00000000       0.00000000       0.06532919
2
Properties=species:S:1:pos:R:3:forces:R:3 energy=-0.029467610483113114 pbc="F F F"
Ar       0.00000000       0.00000000       0.00000000       0.00000000       0.00000000      -0.06277341
Ar       0.00000000       0.00000000       2.64909091       0.00000000       0.00000000       0.06277341
2
Properties=species:S:1:pos:R:3:forces:R:3 energy=-0.03307055607382073 pbc="F F F"
Ar       0.00000000       0.00000000       0.00000000       0.00000000       0.00000000      -0.05971622
Ar       0.00000000       0.00000000       2.70787879       0.00000000       0.00000000       0.05971622
2
Properties=species:S:1:pos:R:3:forces:R:3 energy=-0.036478979512816624 pbc="F F F"
Ar       0.00000000       0.00000000       0.00000000       0.00000000       0.00000000      -0.05616073
Ar       0.00000000       0.00000000       2.76666667       0.00000000       0.00000000       0.05616073
2
Properties=species:S:1:pos:R:3:forces:R:3 energy=-0.03966477475061536 pbc="F F F"
Ar       0.00000000       0.00000000       0.00000000       0.00000000       0.00000000      -0.05215047
Ar       0.00000000       0.00000000       2.82545455       0.00000000       0.00000000       0.05215047
2
Properties=species:S:1:pos:R:3:forces:R:3 energy=-0.04260321881434333 pbc="F F F"
Ar       0.00000000       0.00000000       0.00000000       0.00000000       0.00000000      -0.04776270
Ar       0.00000000       0.00000000       2.88424242       0.00000000       0.00000000       0.04776270
2
Properties=species:S:1:pos:R:3:forces:R:3 energy=-0.04527529007974855 pbc="F F F"
Ar       0.00000000       0.00000000       0.00000000       0.00000000       0.00000000      -0.04310869
Ar       0.00000000       0.00000000       2.94303030       0.00000000       0.00000000       0.04310869
2
Properties=species:S:1:pos:R:3:forces:R:3 energy=-0.04766923011903927 pbc="F F F"
Ar       0.00000000       0.00000000       0.00000000       0.00000000       0.00000000      -0.03832716
Ar       0.00000000       0.00000000       3.00181818       0.00000000       0.00000000       0.03832716
2
Properties=species:S:1:pos:R:3:forces:R:3 energy=-0.04978205097454498 pbc="F F F"
Ar       0.00000000       0.00000000       0.00000000       0.00000000       0.00000000      -0.03356685
Ar       0.00000000       0.00000000       3.06060606       0.00000000       0.00000000       0.03356685
2
Properties=species:S:1:pos:R:3:forces:R:3 energy=-0.051619015949694584 pbc="F F F"
Ar       0.00000000       0.00000000       0.00000000       0.00000000       0.00000000      -0.02896561
Ar       0.00000000       0.00000000       3.11939394       0.00000000       0.00000000       0.02896561
2
Properties=species:S:1:pos:R:3:forces:R:3 energy=-0.053192981639557865 pbc="F F F"
Ar       0.00000000       0.00000000       0.00000000       0.00000000       0.00000000      -0.02463348
Ar       0.00000000       0.00000000       3.17818182       0.00000000       0.00000000       0.02463348
2
Properties=species:S:1:pos:R:3:forces:R:3 energy=-0.05452210687731197 pbc="F F F"
Ar       0.00000000       0.00000000       0.00000000       0.00000000       0.00000000      -0.02064620
Ar       0.00000000       0.00000000       3.23696970       0.00000000       0.00000000       0.02064620
2
Properties=species:S:1:pos:R:3:forces:R:3 energy=-0.0556280831948417 pbc="F F F"
Ar       0.00000000       0.00000000       0.00000000       0.00000000       0.00000000      -0.01704629
Ar       0.00000000       0.00000000       3.29575758       0.00000000       0.00000000       0.01704629
2
Properties=species:S:1:pos:R:3:forces:R:3 energy=-0.05653424357869762 pbc="F F F"
Ar       0.00000000       0.00000000       0.00000000       0.00000000       0.00000000      -0.01384904
Ar       0.00000000       0.00000000       3.35454545       0.00000000       0.00000000       0.01384904
2
Properties=species:S:1:pos:R:3:forces:R:3 energy=-0.05726418705050523 pbc="F F F"
Ar       0.00000000       0.00000000       0.00000000       0.00000000       0.00000000      -0.01104878
Ar       0.00000000       0.00000000       3.41333333       0.00000000       0.00000000       0.01104878
2
Properties=species:S:1:pos:R:3:forces:R:3 energy=-0.05784069252809438 pbc="F F F"
Ar       0.00000000       0.00000000       0.00000000       0.00000000       0.00000000      -0.00862416
Ar       0.00000000       0.00000000       3.47212121       0.00000000       0.00000000       0.00862416
2
Properties=species:S:1:pos:R:3:forces:R:3 energy=-0.058284882166077405 pbc="F F F"
Ar       0.00000000       0.00000000       0.00000000       0.00000000       0.00000000      -0.00654185
Ar       0.00000000       0.00000000       3.53090909       0.00000000       0.00000000       0.00654185
2
Properties=species:S:1:pos:R:3:forces:R:3 energy=-0.058615721290985114 pbc="F F F"
Ar       0.00000000       0.00000000       0.00000000       0.00000000       0.00000000      -0.00475932
Ar       0.00000000       0.00000000       3.58969697       0.00000000       0.00000000       0.00475932
2
Properties=species:S:1:pos:R:3:forces:R:3 energy=-0.05884940003855482 pbc="F F F"
Ar       0.00000000       0.00000000       0.00000000       0.00000000       0.00000000      -0.00322828
Ar       0.00000000       0.00000000       3.64848485       0.00000000       0.00000000       0.00322828
2
Properties=species:S:1:pos:R:3:forces:R:3 energy=-0.0589992216570069 pbc="F F F"
Ar       0.00000000       0.00000000       0.00000000       0.00000000       0.00000000      -0.00189825
Ar       0.00000000       0.00000000       3.70727273       0.00000000       0.00000000       0.00189825
2
Properties=species:S:1:pos:R:3:forces:R:3 energy=-0.05907557851837612 pbc="F F F"
Ar       0.00000000       0.00000000       0.00000000       0.00000000       0.00000000      -0.00072072
Ar       0.00000000       0.00000000       3.76606061       0.00000000       0.00000000       0.00072072
2
Properties=species:S:1:pos:R:3:forces:R:3 energy=-0.059086116385258375 pbc="F F F"
Ar       0.00000000       0.00000000       0.00000000       0.00000000       0.00000000       0.00034663
Ar       0.00000000       0.00000000       3.82484848       0.00000000       0.00000000      -0.00034663
2
Properties=species:S:1:pos:R:3:forces:R:3 energy=-0.05903631403417152 pbc="F F F"
Ar       0.00000000       0.00000000       0.00000000       0.00000000       0.00000000       0.00133739
Ar       0.00000000       0.00000000       3.88363636       0.00000000       0.00000000      -0.00133739
2
Properties=species:S:1:pos:R:3:forces:R:3 energy=-0.058929918499551634 pbc="F F F"
Ar       0.00000000       0.00000000       0.00000000       0.00000000       0.00000000       0.00227463
Ar       0.00000000       0.00000000       3.94242424       0.00000000       0.00000000      -0.00227463
2
Properties=species:S:1:pos:R:3:forces:R:3 energy=-0.05876964322944923 pbc="F F F"
Ar       0.00000000       0.00000000       0.00000000       0.00000000       0.00000000       0.00317179
Ar       0.00000000       0.00000000       4.00121212       0.00000000       0.00000000      -0.00317179
2
Properties=species:S:1:pos:R:3:forces:R:3 energy=-0.05855766076179818 pbc="F F F"
Ar       0.00000000       0.00000000       0.00000000       0.00000000       0.00000000       0.00403468
Ar       0.00000000       0.00000000       4.06000000       0.00000000       0.00000000      -0.00403468
2
Properties=species:S:1:pos:R:3:forces:R:3 energy=-0.05829592412582432 pbc="F F F"
Ar       0.00000000       0.00000000       0.00000000       0.00000000       0.00000000       0.00486386
Ar       0.00000000       0.00000000       4.11878788       0.00000000       0.00000000      -0.00486386
2
Properties=species:S:1:pos:R:3:forces:R:3 energy=-0.057986499388332224 pbc="F F F"
Ar       0.00000000       0.00000000       0.00000000       0.00000000       0.00000000       0.00565674
Ar       0.00000000       0.00000000       4.17757576       0.00000000       0.00000000      -0.00565674
2
Properties=species:S:1:pos:R:3:forces:R:3 energy=-0.057631655587147716 pbc="F F F"
Ar       0.00000000       0.00000000       0.00000000       0.00000000       0.00000000       0.00640771
Ar       0.00000000       0.00000000       4.23636364       0.00000000       0.00000000      -0.00640771
2
Properties=species:S:1:pos:R:3:forces:R:3 energy=-0.057234102003767946 pbc="F F F"
Ar       0.00000000       0.00000000       0.00000000       0.00000000       0.00000000       0.00710762
Ar       0.00000000       0.00000000       4.29515152       0.00000000       0.00000000      -0.00710762
2
Properties=species:S:1:pos:R:3:forces:R:3 energy=-0.056797234939477914 pbc="F F F"
Ar       0.00000000       0.00000000       0.00000000       0.00000000       0.00000000       0.00774285
Ar       0.00000000       0.00000000       4.35393939       0.00000000       0.00000000      -0.00774285
2
Properties=species:S:1:pos:R:3:forces:R:3 energy=-0.056325338938527175 pbc="F F F"
Ar       0.00000000       0.00000000       0.00000000       0.00000000       0.00000000       0.00829604
Ar       0.00000000       0.00000000       4.41272727       0.00000000       0.00000000      -0.00829604
2
Properties=species:S:1:pos:R:3:forces:R:3 energy=-0.055823800182627684 pbc="F F F"
Ar       0.00000000       0.00000000       0.00000000       0.00000000       0.00000000       0.00874815
Ar       0.00000000       0.00000000       4.47151515       0.00000000       0.00000000      -0.00874815
2
Properties=species:S:1:pos:R:3:forces:R:3 energy=-0.05529907571968913 pbc="F F F"
Ar       0.00000000       0.00000000       0.00000000       0.00000000       0.00000000       0.00908263
Ar       0.00000000       0.00000000       4.53030303       0.00000000       0.00000000      -0.00908263
2
Properties=species:S:1:pos:R:3:forces:R:3 energy=-0.05475841680789815 pbc="F F F"
Ar       0.00000000       0.00000000       0.00000000       0.00000000       0.00000000       0.00928934
Ar       0.00000000       0.00000000       4.58909091       0.00000000       0.00000000      -0.00928934
2
Properties=species:S:1:pos:R:3:forces:R:3 energy=-0.05420940306194791 pbc="F F F"
Ar       0.00000000       0.00000000       0.00000000       0.00000000       0.00000000       0.00936752
Ar       0.00000000       0.00000000       4.64787879       0.00000000       0.00000000      -0.00936752
2
Properties=species:S:1:pos:R:3:forces:R:3 energy=-0.05365938103364299 pbc="F F F"
Ar       0.00000000       0.00000000       0.00000000       0.00000000       0.00000000       0.00932539
Ar       0.00000000       0.00000000       4.70666667       0.00000000       0.00000000      -0.00932539
2
Properties=species:S:1:pos:R:3:forces:R:3 energy=-0.053115051788619756 pbc="F F F"
Ar       0.00000000       0.00000000       0.00000000       0.00000000       0.00000000       0.00917701
Ar       0.00000000       0.00000000       4.76545455       0.00000000       0.00000000      -0.00917701
2
Properties=species:S:1:pos:R:3:forces:R:3 energy=-0.052582162087733024 pbc="F F F"
Ar       0.00000000       0.00000000       0.00000000       0.00000000       0.00000000       0.00893719
Ar       0.00000000       0.00000000       4.82424242       0.00000000       0.00000000      -0.00893719
2
Properties=species:S:1:pos:R:3:forces:R:3 energy=-0.052065860415517265 pbc="F F F"
Ar       0.00000000       0.00000000       0.00000000       0.00000000       0.00000000       0.00861568
Ar       0.00000000       0.00000000       4.88303030       0.00000000       0.00000000      -0.00861568
2
Properties=species:S:1:pos:R:3:forces:R:3 energy=-0.0515707251985979 pbc="F F F"
Ar       0.00000000       0.00000000       0.00000000       0.00000000       0.00000000       0.00821498
Ar       0.00000000       0.00000000       4.94181818       0.00000000       0.00000000      -0.00821498
2
Properties=species:S:1:pos:R:3:forces:R:3 energy=-0.05110157595003407 pbc="F F F"
Ar       0.00000000       0.00000000       0.00000000       0.00000000       0.00000000       0.00773205
Ar       0.00000000       0.00000000       5.00060606       0.00000000       0.00000000      -0.00773205
2
Properties=species:S:1:pos:R:3:forces:R:3 energy=-0.05066325160679771 pbc="F F F"
Ar       0.00000000       0.00000000       0.00000000       0.00000000       0.00000000       0.00716588
Ar       0.00000000       0.00000000       5.05939394       0.00000000       0.00000000      -0.00716588
2
Properties=species:S:1:pos:R:3:forces:R:3 energy=-0.050260449279349285 pbc="F F F"
Ar       0.00000000       0.00000000       0.00000000       0.00000000       0.00000000       0.00652869
Ar       0.00000000       0.00000000       5.11818182       0.00000000       0.00000000      -0.00652869
2
Properties=species:S:1:pos:R:3:forces:R:3 energy=-0.049896342080443676 pbc="F F F"
Ar       0.00000000       0.00000000       0.00000000       0.00000000       0.00000000       0.00585727
Ar       0.00000000       0.00000000       5.17696970       0.00000000       0.00000000      -0.00585727
2
Properties=species:S:1:pos:R:3:forces:R:3 energy=-0.04957117238781805 pbc="F F F"
Ar       0.00000000       0.00000000       0.00000000       0.00000000       0.00000000       0.00521719
Ar       0.00000000       0.00000000       5.23575758       0.00000000       0.00000000      -0.00521719
2
Properties=species:S:1:pos:R:3:forces:R:3 energy=-0.04928090769685417 pbc="F F F"
Ar       0.00000000       0.00000000       0.00000000       0.00000000       0.00000000       0.00467768
Ar       0.00000000       0.00000000       5.29454545       0.00000000       0.00000000      -0.00467768
2
Properties=species:S:1:pos:R:3:forces:R:3 energy=-0.04901944356457355 pbc="F F F"
Ar       0.00000000       0.00000000       0.00000000       0.00000000       0.00000000       0.00421901
Ar       0.00000000       0.00000000       5.35333333       0.00000000       0.00000000      -0.00421901
2
Properties=species:S:1:pos:R:3:forces:R:3 energy=-0.04878743873729516 pbc="F F F"
Ar       0.00000000       0.00000000       0.00000000       0.00000000       0.00000000       0.00362772
Ar       0.00000000       0.00000000       5.41212121       0.00000000       0.00000000      -0.00362772
2
Properties=species:S:1:pos:R:3:forces:R:3 energy=-0.04859905986946591 pbc="F F F"
Ar       0.00000000       0.00000000       0.00000000       0.00000000       0.00000000       0.00274849
Ar       0.00000000       0.00000000       5.47090909       0.00000000       0.00000000      -0.00274849
2
Properties=species:S:1:pos:R:3:forces:R:3 energy=-0.04846190175047831 pbc="F F F"
Ar       0.00000000       0.00000000       0.00000000       0.00000000       0.00000000       0.00199152
Ar       0.00000000       0.00000000       5.52969697       0.00000000       0.00000000      -0.00199152
2
Properties=species:S:1:pos:R:3:forces:R:3 energy=-0.048353990754176186 pbc="F F F"
Ar       0.00000000       0.00000000       0.00000000       0.00000000       0.00000000       0.00175823
Ar       0.00000000       0.00000000       5.58848485       0.00000000       0.00000000      -0.00175823
2
Properties=species:S:1:pos:R:3:forces:R:3 energy=-0.04825173997472248 pbc="F F F"
Ar       0.00000000       0.00000000       0.00000000       0.00000000       0.00000000       0.00169257
Ar       0.00000000       0.00000000       5.64727273       0.00000000       0.00000000      -0.00169257
2
Properties=species:S:1:pos:R:3:forces:R:3 energy=-0.0481638027839373 pbc="F F F"
Ar       0.00000000       0.00000000       0.00000000       0.00000000       0.00000000       0.00120092
Ar       0.00000000       0.00000000       5.70606061       0.00000000       0.00000000      -0.00120092
2
Properties=species:S:1:pos:R:3:forces:R:3 energy=-0.04811847841675437 pbc="F F F"
Ar       0.00000000       0.00000000       0.00000000       0.00000000       0.00000000       0.00034304
Ar       0.00000000       0.00000000       5.76484848       0.00000000       0.00000000      -0.00034304
2
Properties=species:S:1:pos:R:3:forces:R:3 energy=-0.04811412370460968 pbc="F F F"
Ar       0.00000000       0.00000000       0.00000000       0.00000000       0.00000000      -0.00006289
Ar       0.00000000       0.00000000       5.82363636       0.00000000       0.00000000       0.00006289
2
Properties=species:S:1:pos:R:3:forces:R:3 energy=-0.048110436156627925 pbc="F F F"
Ar       0.00000000       0.00000000       0.00000000       0.00000000       0.00000000       0.00026940
Ar       0.00000000       0.00000000       5.88242424       0.00000000       0.00000000      -0.00026940
2
Properties=species:S:1:pos:R:3:forces:R:3 energy=-0.04807877050223793 pbc="F F F"
Ar       0.00000000       0.00000000       0.00000000       0.00000000       0.00000000       0.00079089
Ar       0.00000000       0.00000000       5.94121212       0.00000000       0.00000000      -0.00079089
2
Properties=species:S:1:pos:R:3:forces:R:3 energy=-0.04802446134959955 pbc="F F F"
Ar       0.00000000       0.00000000       0.00000000       0.00000000       0.00000000       0.00097438
Ar       0.00000000       0.00000000       6.00000000       0.00000000       0.00000000      -0.00097438
