2
Properties=species:S:1:pos:R:3:forces:R:3 energy=4923.530162422909 pbc="F F F"
As       0.00000000       0.00000000       0.00000000       0.00000000       0.00000000  -76395.53906250
As       0.00000000       0.00000000       0.18000000       0.00000000       0.00000000   76395.53906250
2
Properties=species:S:1:pos:R:3:forces:R:3 energy=2165.087535469784 pbc="F F F"
As       0.00000000       0.00000000       0.00000000       0.00000000       0.00000000  -27326.49804688
As       0.00000000       0.00000000       0.23878788       0.00000000       0.00000000   27326.49804688
2
Properties=species:S:1:pos:R:3:forces:R:3 energy=1100.164683907284 pbc="F F F"
As       0.00000000       0.00000000       0.00000000       0.00000000       0.00000000  -11539.29199219
As       0.00000000       0.00000000       0.29757576       0.00000000       0.00000000   11539.29199219
2
Properties=species:S:1:pos:R:3:forces:R:3 energy=626.8787342065883 pbc="F F F"
As       0.00000000       0.00000000       0.00000000       0.00000000       0.00000000   -5445.38281250
As       0.00000000       0.00000000       0.35636364       0.00000000       0.00000000    5445.38281250
2
Properties=species:S:1:pos:R:3:forces:R:3 energy=394.26481209378335 pbc="F F F"
As       0.00000000       0.00000000       0.00000000       0.00000000       0.00000000   -2815.20703125
As       0.00000000       0.00000000       0.41515152       0.00000000       0.00000000    2815.20703125
2
Properties=species:S:1:pos:R:3:forces:R:3 energy=268.6545521093603 pbc="F F F"
As       0.00000000       0.00000000       0.00000000       0.00000000       0.00000000   -1610.00134277
As       0.00000000       0.00000000       0.47393939       0.00000000       0.00000000    1610.00134277
2
Properties=species:S:1:pos:R:3:forces:R:3 energy=192.67628066299918 pbc="F F F"
As       0.00000000       0.00000000       0.00000000       0.00000000       0.00000000   -1044.51977539
As       0.00000000       0.00000000       0.53272727       0.00000000       0.00000000    1044.51977539
2
Properties=species:S:1:pos:R:3:forces:R:3 energy=134.82026266311718 pbc="F F F"
As       0.00000000       0.00000000       0.00000000       0.00000000       0.00000000    -987.98095703
As       0.00000000       0.00000000       0.59151515       0.00000000       0.00000000     987.98095703
2
Properties=species:S:1:pos:R:3:forces:R:3 energy=98.10033022417426 pbc="F F F"
As       0.00000000       0.00000000       0.00000000       0.00000000       0.00000000    -542.95532227
As       0.00000000       0.00000000       0.65030303       0.00000000       0.00000000     542.95532227
2
Properties=species:S:1:pos:R:3:forces:R:3 energy=68.58758931270512 pbc="F F F"
As       0.00000000       0.00000000       0.00000000       0.00000000       0.00000000    -449.42294312
As       0.00000000       0.00000000       0.70909091       0.00000000       0.00000000     449.42294312
2
Properties=species:S:1:pos:R:3:forces:R:3 energy=44.90160020525501 pbc="F F F"
As       0.00000000       0.00000000       0.00000000       0.00000000       0.00000000    -370.57482910
As       0.00000000       0.00000000       0.76787879       0.00000000       0.00000000     370.57482910
2
Properties=species:S:1:pos:R:3:forces:R:3 energy=23.787371408465738 pbc="F F F"
As       0.00000000       0.00000000       0.00000000       0.00000000       0.00000000    -339.48989868
As       0.00000000       0.00000000       0.82666667       0.00000000       0.00000000     339.48989868
2
Properties=species:S:1:pos:R:3:forces:R:3 energy=7.839185584289055 pbc="F F F"
As       0.00000000       0.00000000       0.00000000       0.00000000       0.00000000    -188.03384399
As       0.00000000       0.00000000       0.88545455       0.00000000       0.00000000     188.03384399
2
Properties=species:S:1:pos:R:3:forces:R:3 energy=2.3256618597655874 pbc="F F F"
As       0.00000000       0.00000000       0.00000000       0.00000000       0.00000000      -3.38207388
As       0.00000000       0.00000000       0.94424242       0.00000000       0.00000000       3.38207388
2
Properties=species:S:1:pos:R:3:forces:R:3 energy=6.185172913419111 pbc="F F F"
As       0.00000000       0.00000000       0.00000000       0.00000000       0.00000000     118.94966125
As       0.00000000       0.00000000       1.00303030       0.00000000       0.00000000    -118.94966125
2
Properties=species:S:1:pos:R:3:forces:R:3 energy=14.613884875629651 pbc="F F F"
As       0.00000000       0.00000000       0.00000000       0.00000000       0.00000000     148.98606873
As       0.00000000       0.00000000       1.06181818       0.00000000       0.00000000    -148.98606873
2
Properties=species:S:1:pos:R:3:forces:R:3 energy=22.235297234895008 pbc="F F F"
As       0.00000000       0.00000000       0.00000000       0.00000000       0.00000000     141.35186768
As       0.00000000       0.00000000       1.12060606       0.00000000       0.00000000    -141.35186768
2
Properties=species:S:1:pos:R:3:forces:R:3 energy=25.667213217867126 pbc="F F F"
As       0.00000000       0.00000000       0.00000000       0.00000000       0.00000000      -2.17031169
As       0.00000000       0.00000000       1.17939394       0.00000000       0.00000000       2.17031169
2
Properties=species:S:1:pos:R:3:forces:R:3 energy=23.5023015004232 pbc="F F F"
As       0.00000000       0.00000000       0.00000000       0.00000000       0.00000000     -57.52159500
As       0.00000000       0.00000000       1.23818182       0.00000000       0.00000000      57.52159500
2
Properties=species:S:1:pos:R:3:forces:R:3 energy=19.683461967108588 pbc="F F F"
As       0.00000000       0.00000000       0.00000000       0.00000000       0.00000000     -71.61222076
As       0.00000000       0.00000000       1.29696970       0.00000000       0.00000000      71.61222076
2
Properties=species:S:1:pos:R:3:forces:R:3 energy=15.199430016470691 pbc="F F F"
As       0.00000000       0.00000000       0.00000000       0.00000000       0.00000000     -78.65253448
As       0.00000000       0.00000000       1.35575758       0.00000000       0.00000000      78.65253448
2
Properties=species:S:1:pos:R:3:forces:R:3 energy=10.695858660260086 pbc="F F F"
As       0.00000000       0.00000000       0.00000000       0.00000000       0.00000000     -73.13774872
As       0.00000000       0.00000000       1.41454545       0.00000000       0.00000000      73.13774872
2
Properties=species:S:1:pos:R:3:forces:R:3 energy=6.6862545770799375 pbc="F F F"
As       0.00000000       0.00000000       0.00000000       0.00000000       0.00000000     -62.95544815
As       0.00000000       0.00000000       1.47333333       0.00000000       0.00000000      62.95544815
2
Properties=species:S:1:pos:R:3:forces:R:3 energy=3.308406856295467 pbc="F F F"
As       0.00000000       0.00000000       0.00000000       0.00000000       0.00000000     -51.96784210
As       0.00000000       0.00000000       1.53212121       0.00000000       0.00000000      51.96784210
2
Properties=species:S:1:pos:R:3:forces:R:3 energy=0.5665492193289287 pbc="F F F"
As       0.00000000       0.00000000       0.00000000       0.00000000       0.00000000     -41.44352341
As       0.00000000       0.00000000       1.59090909       0.00000000       0.00000000      41.44352341
2
Properties=species:S:1:pos:R:3:forces:R:3 energy=-1.5841228558575724 pbc="F F F"
As       0.00000000       0.00000000       0.00000000       0.00000000       0.00000000     -31.93156242
As       0.00000000       0.00000000       1.64969697       0.00000000       0.00000000      31.93156242
2
Properties=species:S:1:pos:R:3:forces:R:3 energy=-3.2171058445137724 pbc="F F F"
As       0.00000000       0.00000000       0.00000000       0.00000000       0.00000000     -23.90592766
As       0.00000000       0.00000000       1.70848485       0.00000000       0.00000000      23.90592766
2
Properties=species:S:1:pos:R:3:forces:R:3 energy=-4.42940923722254 pbc="F F F"
As       0.00000000       0.00000000       0.00000000       0.00000000       0.00000000     -17.62378693
As       0.00000000       0.00000000       1.76727273       0.00000000       0.00000000      17.62378693
2
Properties=species:S:1:pos:R:3:forces:R:3 energy=-5.319510203997115 pbc="F F F"
As       0.00000000       0.00000000       0.00000000       0.00000000       0.00000000     -12.87909126
As       0.00000000       0.00000000       1.82606061       0.00000000       0.00000000      12.87909126
2
Properties=species:S:1:pos:R:3:forces:R:3 energy=-5.965188485552492 pbc="F F F"
As       0.00000000       0.00000000       0.00000000       0.00000000       0.00000000      -9.23555756
As       0.00000000       0.00000000       1.88484848       0.00000000       0.00000000       9.23555756
2
Properties=species:S:1:pos:R:3:forces:R:3 energy=-6.4197080504050525 pbc="F F F"
As       0.00000000       0.00000000       0.00000000       0.00000000       0.00000000      -6.32902241
As       0.00000000       0.00000000       1.94363636       0.00000000       0.00000000       6.32902241
2
Properties=species:S:1:pos:R:3:forces:R:3 energy=-6.719785028778947 pbc="F F F"
As       0.00000000       0.00000000       0.00000000       0.00000000       0.00000000      -3.95978928
As       0.00000000       0.00000000       2.00242424       0.00000000       0.00000000       3.95978928
2
Properties=species:S:1:pos:R:3:forces:R:3 energy=-6.894037838921278 pbc="F F F"
As       0.00000000       0.00000000       0.00000000       0.00000000       0.00000000      -2.03834748
As       0.00000000       0.00000000       2.06121212       0.00000000       0.00000000       2.03834748
2
Properties=species:S:1:pos:R:3:forces:R:3 energy=-6.967214787332864 pbc="F F F"
As       0.00000000       0.00000000       0.00000000       0.00000000       0.00000000      -0.51328737
As       0.00000000       0.00000000       2.12000000       0.00000000       0.00000000       0.51328737
2
Properties=species:S:1:pos:R:3:forces:R:3 energy=-6.9611659515956745 pbc="F F F"
As       0.00000000       0.00000000       0.00000000       0.00000000       0.00000000       0.66611934
As       0.00000000       0.00000000       2.17878788       0.00000000       0.00000000      -0.66611934
2
Properties=species:S:1:pos:R:3:forces:R:3 energy=-6.89455602936893 pbc="F F F"
As       0.00000000       0.00000000       0.00000000       0.00000000       0.00000000       1.55669701
As       0.00000000       0.00000000       2.23757576       0.00000000       0.00000000      -1.55669701
2
Properties=species:S:1:pos:R:3:forces:R:3 energy=-6.782668933356724 pbc="F F F"
As       0.00000000       0.00000000       0.00000000       0.00000000       0.00000000       2.21573782
As       0.00000000       0.00000000       2.29636364       0.00000000       0.00000000      -2.21573782
2
Properties=species:S:1:pos:R:3:forces:R:3 energy=-6.637551754948112 pbc="F F F"
As       0.00000000       0.00000000       0.00000000       0.00000000       0.00000000       2.69531631
As       0.00000000       0.00000000       2.35515152       0.00000000       0.00000000      -2.69531631
2
Properties=species:S:1:pos:R:3:forces:R:3 energy=-6.468389128903636 pbc="F F F"
As       0.00000000       0.00000000       0.00000000       0.00000000       0.00000000       3.04068899
As       0.00000000       0.00000000       2.41393939       0.00000000       0.00000000      -3.04068899
2
Properties=species:S:1:pos:R:3:forces:R:3 energy=-6.2819195216979 pbc="F F F"
As       0.00000000       0.00000000       0.00000000       0.00000000       0.00000000       3.28979325
As       0.00000000       0.00000000       2.47272727       0.00000000       0.00000000      -3.28979325
2
Properties=species:S:1:pos:R:3:forces:R:3 energy=-6.082932111677527 pbc="F F F"
As       0.00000000       0.00000000       0.00000000       0.00000000       0.00000000       3.46987534
As       0.00000000       0.00000000       2.53151515       0.00000000       0.00000000      -3.46987534
2
Properties=species:S:1:pos:R:3:forces:R:3 energy=-5.875041232794705 pbc="F F F"
As       0.00000000       0.00000000       0.00000000       0.00000000       0.00000000       3.59358025
As       0.00000000       0.00000000       2.59030303       0.00000000       0.00000000      -3.59358025
2
Properties=species:S:1:pos:R:3:forces:R:3 energy=-5.661529520905373 pbc="F F F"
As       0.00000000       0.00000000       0.00000000       0.00000000       0.00000000       3.66018701
As       0.00000000       0.00000000       2.64909091       0.00000000       0.00000000      -3.66018701
2
Properties=species:S:1:pos:R:3:forces:R:3 energy=-5.445958696155538 pbc="F F F"
As       0.00000000       0.00000000       0.00000000       0.00000000       0.00000000       3.66210890
As       0.00000000       0.00000000       2.70787879       0.00000000       0.00000000      -3.66210890
2
Properties=species:S:1:pos:R:3:forces:R:3 energy=-5.232387369696765 pbc="F F F"
As       0.00000000       0.00000000       0.00000000       0.00000000       0.00000000       3.59102249
As       0.00000000       0.00000000       2.76666667       0.00000000       0.00000000      -3.59102249
2
Properties=species:S:1:pos:R:3:forces:R:3 energy=-5.02527537815956 pbc="F F F"
As       0.00000000       0.00000000       0.00000000       0.00000000       0.00000000       3.44199657
As       0.00000000       0.00000000       2.82545455       0.00000000       0.00000000      -3.44199657
2
Properties=species:S:1:pos:R:3:forces:R:3 energy=-4.829159722631434 pbc="F F F"
As       0.00000000       0.00000000       0.00000000       0.00000000       0.00000000       3.21848297
As       0.00000000       0.00000000       2.88424242       0.00000000       0.00000000      -3.21848297
2
Properties=species:S:1:pos:R:3:forces:R:3 energy=-4.648015575346533 pbc="F F F"
As       0.00000000       0.00000000       0.00000000       0.00000000       0.00000000       2.93639016
As       0.00000000       0.00000000       2.94303030       0.00000000       0.00000000      -2.93639016
2
Properties=species:S:1:pos:R:3:forces:R:3 energy=-4.484548746808216 pbc="F F F"
As       0.00000000       0.00000000       0.00000000       0.00000000       0.00000000       2.62182999
As       0.00000000       0.00000000       3.00181818       0.00000000       0.00000000      -2.62182999
2
Properties=species:S:1:pos:R:3:forces:R:3 energy=-4.339835318647998 pbc="F F F"
As       0.00000000       0.00000000       0.00000000       0.00000000       0.00000000       2.30273819
As       0.00000000       0.00000000       3.06060606       0.00000000       0.00000000      -2.30273819
2
Properties=species:S:1:pos:R:3:forces:R:3 energy=-4.21346576130464 pbc="F F F"
As       0.00000000       0.00000000       0.00000000       0.00000000       0.00000000       2.00049424
As       0.00000000       0.00000000       3.11939394       0.00000000       0.00000000      -2.00049424
2
Properties=species:S:1:pos:R:3:forces:R:3 energy=-4.1040577255787 pbc="F F F"
As       0.00000000       0.00000000       0.00000000       0.00000000       0.00000000       1.72695541
As       0.00000000       0.00000000       3.17818182       0.00000000       0.00000000      -1.72695541
2
Properties=species:S:1:pos:R:3:forces:R:3 energy=-4.009764751024173 pbc="F F F"
As       0.00000000       0.00000000       0.00000000       0.00000000       0.00000000       1.48665142
As       0.00000000       0.00000000       3.23696970       0.00000000       0.00000000      -1.48665142
2
Properties=species:S:1:pos:R:3:forces:R:3 energy=-3.928602705779674 pbc="F F F"
As       0.00000000       0.00000000       0.00000000       0.00000000       0.00000000       1.28010154
As       0.00000000       0.00000000       3.29575758       0.00000000       0.00000000      -1.28010154
2
Properties=species:S:1:pos:R:3:forces:R:3 energy=-3.8586208081071613 pbc="F F F"
As       0.00000000       0.00000000       0.00000000       0.00000000       0.00000000       1.10593033
As       0.00000000       0.00000000       3.35454545       0.00000000       0.00000000      -1.10593033
2
Properties=species:S:1:pos:R:3:forces:R:3 energy=-3.79798321901393 pbc="F F F"
As       0.00000000       0.00000000       0.00000000       0.00000000       0.00000000       0.96174526
As       0.00000000       0.00000000       3.41333333       0.00000000       0.00000000      -0.96174526
2
Properties=species:S:1:pos:R:3:forces:R:3 energy=-3.7450164678708506 pbc="F F F"
As       0.00000000       0.00000000       0.00000000       0.00000000       0.00000000       0.84438181
As       0.00000000       0.00000000       3.47212121       0.00000000       0.00000000      -0.84438181
2
Properties=species:S:1:pos:R:3:forces:R:3 energy=-3.6982535335151585 pbc="F F F"
As       0.00000000       0.00000000       0.00000000       0.00000000       0.00000000       0.75002658
As       0.00000000       0.00000000       3.53090909       0.00000000       0.00000000      -0.75002658
2
Properties=species:S:1:pos:R:3:forces:R:3 energy=-3.656464202445703 pbc="F F F"
As       0.00000000       0.00000000       0.00000000       0.00000000       0.00000000       0.67441887
As       0.00000000       0.00000000       3.58969697       0.00000000       0.00000000      -0.67441887
2
Properties=species:S:1:pos:R:3:forces:R:3 energy=-3.6186756368492623 pbc="F F F"
As       0.00000000       0.00000000       0.00000000       0.00000000       0.00000000       0.61321920
As       0.00000000       0.00000000       3.64848485       0.00000000       0.00000000      -0.61321920
2
Properties=species:S:1:pos:R:3:forces:R:3 energy=-3.584162471062077 pbc="F F F"
As       0.00000000       0.00000000       0.00000000       0.00000000       0.00000000       0.56237423
As       0.00000000       0.00000000       3.70727273       0.00000000       0.00000000      -0.56237423
2
Properties=species:S:1:pos:R:3:forces:R:3 energy=-3.552419220707023 pbc="F F F"
As       0.00000000       0.00000000       0.00000000       0.00000000       0.00000000       0.51842320
As       0.00000000       0.00000000       3.76606061       0.00000000       0.00000000      -0.51842320
2
Properties=species:S:1:pos:R:3:forces:R:3 energy=-3.523127494971291 pbc="F F F"
As       0.00000000       0.00000000       0.00000000       0.00000000       0.00000000       0.47860953
As       0.00000000       0.00000000       3.82484848       0.00000000       0.00000000      -0.47860953
2
Properties=species:S:1:pos:R:3:forces:R:3 energy=-3.4961073275380303 pbc="F F F"
As       0.00000000       0.00000000       0.00000000       0.00000000       0.00000000       0.44080344
As       0.00000000       0.00000000       3.88363636       0.00000000       0.00000000      -0.44080344
2
Properties=species:S:1:pos:R:3:forces:R:3 energy=-3.471292651150921 pbc="F F F"
As       0.00000000       0.00000000       0.00000000       0.00000000       0.00000000       0.40336365
As       0.00000000       0.00000000       3.94242424       0.00000000       0.00000000      -0.40336365
2
Properties=species:S:1:pos:R:3:forces:R:3 energy=-3.4487002588493816 pbc="F F F"
As       0.00000000       0.00000000       0.00000000       0.00000000       0.00000000       0.36500749
As       0.00000000       0.00000000       4.00121212       0.00000000       0.00000000      -0.36500749
2
Properties=species:S:1:pos:R:3:forces:R:3 energy=-3.428413696875239 pbc="F F F"
As       0.00000000       0.00000000       0.00000000       0.00000000       0.00000000       0.32478598
As       0.00000000       0.00000000       4.06000000       0.00000000       0.00000000      -0.32478598
2
Properties=species:S:1:pos:R:3:forces:R:3 energy=-3.4105596485621086 pbc="F F F"
As       0.00000000       0.00000000       0.00000000       0.00000000       0.00000000       0.28221270
As       0.00000000       0.00000000       4.11878788       0.00000000       0.00000000      -0.28221270
2
Properties=species:S:1:pos:R:3:forces:R:3 energy=-3.3952760726089117 pbc="F F F"
As       0.00000000       0.00000000       0.00000000       0.00000000       0.00000000       0.23742434
As       0.00000000       0.00000000       4.17757576       0.00000000       0.00000000      -0.23742434
2
Properties=species:S:1:pos:R:3:forces:R:3 energy=-3.382670108361421 pbc="F F F"
As       0.00000000       0.00000000       0.00000000       0.00000000       0.00000000       0.19133455
As       0.00000000       0.00000000       4.23636364       0.00000000       0.00000000      -0.19133455
2
Properties=species:S:1:pos:R:3:forces:R:3 energy=-3.3727727255970796 pbc="F F F"
As       0.00000000       0.00000000       0.00000000       0.00000000       0.00000000       0.14560694
As       0.00000000       0.00000000       4.29515152       0.00000000       0.00000000      -0.14560694
2
Properties=species:S:1:pos:R:3:forces:R:3 energy=-3.365500248850833 pbc="F F F"
As       0.00000000       0.00000000       0.00000000       0.00000000       0.00000000       0.10243630
As       0.00000000       0.00000000       4.35393939       0.00000000       0.00000000      -0.10243630
2
Properties=species:S:1:pos:R:3:forces:R:3 energy=-3.360633661764087 pbc="F F F"
As       0.00000000       0.00000000       0.00000000       0.00000000       0.00000000       0.06412223
As       0.00000000       0.00000000       4.41272727       0.00000000       0.00000000      -0.06412223
2
Properties=species:S:1:pos:R:3:forces:R:3 energy=-3.3578272249995984 pbc="F F F"
As       0.00000000       0.00000000       0.00000000       0.00000000       0.00000000       0.03261022
As       0.00000000       0.00000000       4.47151515       0.00000000       0.00000000      -0.03261022
2
Properties=species:S:1:pos:R:3:forces:R:3 energy=-3.3566427324891337 pbc="F F F"
As       0.00000000       0.00000000       0.00000000       0.00000000       0.00000000       0.00904086
As       0.00000000       0.00000000       4.53030303       0.00000000       0.00000000      -0.00904086
2
Properties=species:S:1:pos:R:3:forces:R:3 energy=-3.356606886363748 pbc="F F F"
As       0.00000000       0.00000000       0.00000000       0.00000000       0.00000000      -0.00653504
As       0.00000000       0.00000000       4.58909091       0.00000000       0.00000000       0.00653504
2
Properties=species:S:1:pos:R:3:forces:R:3 energy=-3.3572756858092494 pbc="F F F"
As       0.00000000       0.00000000       0.00000000       0.00000000       0.00000000      -0.01522056
As       0.00000000       0.00000000       4.64787879       0.00000000       0.00000000       0.01522056
2
Properties=species:S:1:pos:R:3:forces:R:3 energy=-3.3583016706089768 pbc="F F F"
As       0.00000000       0.00000000       0.00000000       0.00000000       0.00000000      -0.01908746
As       0.00000000       0.00000000       4.70666667       0.00000000       0.00000000       0.01908746
2
Properties=species:S:1:pos:R:3:forces:R:3 energy=-3.3594768095615444 pbc="F F F"
As       0.00000000       0.00000000       0.00000000       0.00000000       0.00000000      -0.02075081
As       0.00000000       0.00000000       4.76545455       0.00000000       0.00000000       0.02075081
2
Properties=species:S:1:pos:R:3:forces:R:3 energy=-3.36074901788707 pbc="F F F"
As       0.00000000       0.00000000       0.00000000       0.00000000       0.00000000      -0.02278719
As       0.00000000       0.00000000       4.82424242       0.00000000       0.00000000       0.02278719
2
Properties=species:S:1:pos:R:3:forces:R:3 energy=-3.3622021348182605 pbc="F F F"
As       0.00000000       0.00000000       0.00000000       0.00000000       0.00000000      -0.02714305
As       0.00000000       0.00000000       4.88303030       0.00000000       0.00000000       0.02714305
2
Properties=species:S:1:pos:R:3:forces:R:3 energy=-3.3640042136952357 pbc="F F F"
As       0.00000000       0.00000000       0.00000000       0.00000000       0.00000000      -0.03469861
As       0.00000000       0.00000000       4.94181818       0.00000000       0.00000000       0.03469861
2
Properties=species:S:1:pos:R:3:forces:R:3 energy=-3.366337979768163 pbc="F F F"
As       0.00000000       0.00000000       0.00000000       0.00000000       0.00000000      -0.04507381
As       0.00000000       0.00000000       5.00060606       0.00000000       0.00000000       0.04507381
2
Properties=species:S:1:pos:R:3:forces:R:3 energy=-3.369329584223794 pbc="F F F"
As       0.00000000       0.00000000       0.00000000       0.00000000       0.00000000      -0.05673696
As       0.00000000       0.00000000       5.05939394       0.00000000       0.00000000       0.05673696
2
Properties=species:S:1:pos:R:3:forces:R:3 energy=-3.3729868775321408 pbc="F F F"
As       0.00000000       0.00000000       0.00000000       0.00000000       0.00000000      -0.06725845
As       0.00000000       0.00000000       5.11818182       0.00000000       0.00000000       0.06725845
2
Properties=species:S:1:pos:R:3:forces:R:3 energy=-3.377156546371308 pbc="F F F"
As       0.00000000       0.00000000       0.00000000       0.00000000       0.00000000      -0.07364935
As       0.00000000       0.00000000       5.17696970       0.00000000       0.00000000       0.07364935
2
Properties=species:S:1:pos:R:3:forces:R:3 energy=-3.3815062845031205 pbc="F F F"
As       0.00000000       0.00000000       0.00000000       0.00000000       0.00000000      -0.07296273
As       0.00000000       0.00000000       5.23575758       0.00000000       0.00000000       0.07296273
2
Properties=species:S:1:pos:R:3:forces:R:3 energy=-3.3855684566352346 pbc="F F F"
As       0.00000000       0.00000000       0.00000000       0.00000000       0.00000000      -0.06396903
As       0.00000000       0.00000000       5.29454545       0.00000000       0.00000000       0.06396903
2
Properties=species:S:1:pos:R:3:forces:R:3 energy=-3.388939211988775 pbc="F F F"
As       0.00000000       0.00000000       0.00000000       0.00000000       0.00000000      -0.05075476
As       0.00000000       0.00000000       5.35333333       0.00000000       0.00000000       0.05075476
2
Properties=species:S:1:pos:R:3:forces:R:3 energy=-3.391669035313703 pbc="F F F"
As       0.00000000       0.00000000       0.00000000       0.00000000       0.00000000      -0.04416157
As       0.00000000       0.00000000       5.41212121       0.00000000       0.00000000       0.04416157
2
Properties=species:S:1:pos:R:3:forces:R:3 energy=-3.3943727069550245 pbc="F F F"
As       0.00000000       0.00000000       0.00000000       0.00000000       0.00000000      -0.04894950
As       0.00000000       0.00000000       5.47090909       0.00000000       0.00000000       0.04894950
2
Properties=species:S:1:pos:R:3:forces:R:3 energy=-3.397351208809872 pbc="F F F"
As       0.00000000       0.00000000       0.00000000       0.00000000       0.00000000      -0.05031238
As       0.00000000       0.00000000       5.52969697       0.00000000       0.00000000       0.05031238
2
Properties=species:S:1:pos:R:3:forces:R:3 energy=-3.400036942508911 pbc="F F F"
As       0.00000000       0.00000000       0.00000000       0.00000000       0.00000000      -0.03971240
As       0.00000000       0.00000000       5.58848485       0.00000000       0.00000000       0.03971240
2
Properties=species:S:1:pos:R:3:forces:R:3 energy=-3.402009680875091 pbc="F F F"
As       0.00000000       0.00000000       0.00000000       0.00000000       0.00000000      -0.02844029
As       0.00000000       0.00000000       5.64727273       0.00000000       0.00000000       0.02844029
2
Properties=species:S:1:pos:R:3:forces:R:3 energy=-3.4035658790203636 pbc="F F F"
As       0.00000000       0.00000000       0.00000000       0.00000000       0.00000000      -0.02605323
As       0.00000000       0.00000000       5.70606061       0.00000000       0.00000000       0.02605323
2
Properties=species:S:1:pos:R:3:forces:R:3 energy=-3.4051386363927927 pbc="F F F"
As       0.00000000       0.00000000       0.00000000       0.00000000       0.00000000      -0.02656459
As       0.00000000       0.00000000       5.76484848       0.00000000       0.00000000       0.02656459
2
Properties=species:S:1:pos:R:3:forces:R:3 energy=-3.4065092698981565 pbc="F F F"
As       0.00000000       0.00000000       0.00000000       0.00000000       0.00000000      -0.01862632
As       0.00000000       0.00000000       5.82363636       0.00000000       0.00000000       0.01862632
2
Properties=species:S:1:pos:R:3:forces:R:3 energy=-3.4072421581059826 pbc="F F F"
As       0.00000000       0.00000000       0.00000000       0.00000000       0.00000000      -0.00655743
As       0.00000000       0.00000000       5.88242424       0.00000000       0.00000000       0.00655743
2
Properties=species:S:1:pos:R:3:forces:R:3 energy=-3.4073592582960934 pbc="F F F"
As       0.00000000       0.00000000       0.00000000       0.00000000       0.00000000       0.00174483
As       0.00000000       0.00000000       5.94121212       0.00000000       0.00000000      -0.00174483
2
Properties=species:S:1:pos:R:3:forces:R:3 energy=-3.407149134364679 pbc="F F F"
As       0.00000000       0.00000000       0.00000000       0.00000000       0.00000000       0.00440468
As       0.00000000       0.00000000       6.00000000       0.00000000       0.00000000      -0.00440468
