2
Properties=species:S:1:pos:R:3:forces:R:3 energy=971.1601106711722 pbc="F F F"
B        0.00000000       0.00000000       0.00000000       0.00000000       0.00000000  -17162.67382812
B        0.00000000       0.00000000       0.10000000       0.00000000       0.00000000   17162.67382812
2
Properties=species:S:1:pos:R:3:forces:R:3 energy=407.5464937278129 pbc="F F F"
B        0.00000000       0.00000000       0.00000000       0.00000000       0.00000000   -4929.37744141
B        0.00000000       0.00000000       0.15959596       0.00000000       0.00000000    4929.37744141
2
Properties=species:S:1:pos:R:3:forces:R:3 energy=220.5049440451957 pbc="F F F"
B        0.00000000       0.00000000       0.00000000       0.00000000       0.00000000   -1923.55883789
B        0.00000000       0.00000000       0.21919192       0.00000000       0.00000000    1923.55883789
2
Properties=species:S:1:pos:R:3:forces:R:3 energy=141.38040181045147 pbc="F F F"
B        0.00000000       0.00000000       0.00000000       0.00000000       0.00000000    -894.93853760
B        0.00000000       0.00000000       0.27878788       0.00000000       0.00000000     894.93853760
2
Properties=species:S:1:pos:R:3:forces:R:3 energy=101.96051808875978 pbc="F F F"
B        0.00000000       0.00000000       0.00000000       0.00000000       0.00000000    -489.93237305
B        0.00000000       0.00000000       0.33838384       0.00000000       0.00000000     489.93237305
2
Properties=species:S:1:pos:R:3:forces:R:3 energy=78.10880301512437 pbc="F F F"
B        0.00000000       0.00000000       0.00000000       0.00000000       0.00000000    -332.07247925
B        0.00000000       0.00000000       0.39797980       0.00000000       0.00000000     332.07247925
2
Properties=species:S:1:pos:R:3:forces:R:3 energy=60.806270847589836 pbc="F F F"
B        0.00000000       0.00000000       0.00000000       0.00000000       0.00000000    -258.38195801
B        0.00000000       0.00000000       0.45757576       0.00000000       0.00000000     258.38195801
2
Properties=species:S:1:pos:R:3:forces:R:3 energy=46.509723963823745 pbc="F F F"
B        0.00000000       0.00000000       0.00000000       0.00000000       0.00000000    -225.10612488
B        0.00000000       0.00000000       0.51717172       0.00000000       0.00000000     225.10612488
2
Properties=species:S:1:pos:R:3:forces:R:3 energy=34.143330014305754 pbc="F F F"
B        0.00000000       0.00000000       0.00000000       0.00000000       0.00000000    -185.61326599
B        0.00000000       0.00000000       0.57676768       0.00000000       0.00000000     185.61326599
2
Properties=species:S:1:pos:R:3:forces:R:3 energy=24.649767475916512 pbc="F F F"
B        0.00000000       0.00000000       0.00000000       0.00000000       0.00000000    -134.30245972
B        0.00000000       0.00000000       0.63636364       0.00000000       0.00000000     134.30245972
2
Properties=species:S:1:pos:R:3:forces:R:3 energy=17.703223080541576 pbc="F F F"
B        0.00000000       0.00000000       0.00000000       0.00000000       0.00000000     -99.73297119
B        0.00000000       0.00000000       0.69595960       0.00000000       0.00000000      99.73297119
2
Properties=species:S:1:pos:R:3:forces:R:3 energy=13.118308309050889 pbc="F F F"
B        0.00000000       0.00000000       0.00000000       0.00000000       0.00000000     -53.91482544
B        0.00000000       0.00000000       0.75555556       0.00000000       0.00000000      53.91482544
2
Properties=species:S:1:pos:R:3:forces:R:3 energy=10.646931519188463 pbc="F F F"
B        0.00000000       0.00000000       0.00000000       0.00000000       0.00000000     -38.17134857
B        0.00000000       0.00000000       0.81515152       0.00000000       0.00000000      38.17134857
2
Properties=species:S:1:pos:R:3:forces:R:3 energy=8.001201389539116 pbc="F F F"
B        0.00000000       0.00000000       0.00000000       0.00000000       0.00000000     -49.06608582
B        0.00000000       0.00000000       0.87474747       0.00000000       0.00000000      49.06608582
2
Properties=species:S:1:pos:R:3:forces:R:3 energy=5.084273335645126 pbc="F F F"
B        0.00000000       0.00000000       0.00000000       0.00000000       0.00000000     -47.34888840
B        0.00000000       0.00000000       0.93434343       0.00000000       0.00000000      47.34888840
2
Properties=species:S:1:pos:R:3:forces:R:3 energy=2.4689216370416722 pbc="F F F"
B        0.00000000       0.00000000       0.00000000       0.00000000       0.00000000     -39.75326157
B        0.00000000       0.00000000       0.99393939       0.00000000       0.00000000      39.75326157
2
Properties=species:S:1:pos:R:3:forces:R:3 energy=0.3871058293384701 pbc="F F F"
B        0.00000000       0.00000000       0.00000000       0.00000000       0.00000000     -30.11244392
B        0.00000000       0.00000000       1.05353535       0.00000000       0.00000000      30.11244392
2
Properties=species:S:1:pos:R:3:forces:R:3 energy=-1.148335981074513 pbc="F F F"
B        0.00000000       0.00000000       0.00000000       0.00000000       0.00000000     -21.78268623
B        0.00000000       0.00000000       1.11313131       0.00000000       0.00000000      21.78268623
2
Properties=species:S:1:pos:R:3:forces:R:3 energy=-2.2548214855834723 pbc="F F F"
B        0.00000000       0.00000000       0.00000000       0.00000000       0.00000000     -15.70223331
B        0.00000000       0.00000000       1.17272727       0.00000000       0.00000000      15.70223331
2
Properties=species:S:1:pos:R:3:forces:R:3 energy=-3.0544871244139578 pbc="F F F"
B        0.00000000       0.00000000       0.00000000       0.00000000       0.00000000     -11.36391258
B        0.00000000       0.00000000       1.23232323       0.00000000       0.00000000      11.36391258
2
Properties=species:S:1:pos:R:3:forces:R:3 energy=-3.632053816496909 pbc="F F F"
B        0.00000000       0.00000000       0.00000000       0.00000000       0.00000000      -8.18488121
B        0.00000000       0.00000000       1.29191919       0.00000000       0.00000000       8.18488121
2
Properties=species:S:1:pos:R:3:forces:R:3 energy=-4.047713788027961 pbc="F F F"
B        0.00000000       0.00000000       0.00000000       0.00000000       0.00000000      -5.88927031
B        0.00000000       0.00000000       1.35151515       0.00000000       0.00000000       5.88927031
2
Properties=species:S:1:pos:R:3:forces:R:3 energy=-4.3449697301668735 pbc="F F F"
B        0.00000000       0.00000000       0.00000000       0.00000000       0.00000000      -4.14551449
B        0.00000000       0.00000000       1.41111111       0.00000000       0.00000000       4.14551449
2
Properties=species:S:1:pos:R:3:forces:R:3 energy=-4.546272980986108 pbc="F F F"
B        0.00000000       0.00000000       0.00000000       0.00000000       0.00000000      -2.63615799
B        0.00000000       0.00000000       1.47070707       0.00000000       0.00000000       2.63615799
2
Properties=species:S:1:pos:R:3:forces:R:3 energy=-4.66236356530765 pbc="F F F"
B        0.00000000       0.00000000       0.00000000       0.00000000       0.00000000      -1.29094791
B        0.00000000       0.00000000       1.53030303       0.00000000       0.00000000       1.29094791
2
Properties=species:S:1:pos:R:3:forces:R:3 energy=-4.704462957940283 pbc="F F F"
B        0.00000000       0.00000000       0.00000000       0.00000000       0.00000000      -0.16151235
B        0.00000000       0.00000000       1.58989899       0.00000000       0.00000000       0.16151235
2
Properties=species:S:1:pos:R:3:forces:R:3 energy=-4.686424653949283 pbc="F F F"
B        0.00000000       0.00000000       0.00000000       0.00000000       0.00000000       0.72725636
B        0.00000000       0.00000000       1.64949495       0.00000000       0.00000000      -0.72725636
2
Properties=species:S:1:pos:R:3:forces:R:3 energy=-4.62227598416708 pbc="F F F"
B        0.00000000       0.00000000       0.00000000       0.00000000       0.00000000       1.39055967
B        0.00000000       0.00000000       1.70909091       0.00000000       0.00000000      -1.39055967
2
Properties=species:S:1:pos:R:3:forces:R:3 energy=-4.524442891155417 pbc="F F F"
B        0.00000000       0.00000000       0.00000000       0.00000000       0.00000000       1.86447001
B        0.00000000       0.00000000       1.76868687       0.00000000       0.00000000      -1.86447001
2
Properties=species:S:1:pos:R:3:forces:R:3 energy=-4.4028884568524065 pbc="F F F"
B        0.00000000       0.00000000       0.00000000       0.00000000       0.00000000       2.19581461
B        0.00000000       0.00000000       1.82828283       0.00000000       0.00000000      -2.19581461
2
Properties=species:S:1:pos:R:3:forces:R:3 energy=-4.2644078790967885 pbc="F F F"
B        0.00000000       0.00000000       0.00000000       0.00000000       0.00000000       2.44169807
B        0.00000000       0.00000000       1.88787879       0.00000000       0.00000000      -2.44169807
2
Properties=species:S:1:pos:R:3:forces:R:3 energy=-4.112669411238803 pbc="F F F"
B        0.00000000       0.00000000       0.00000000       0.00000000       0.00000000       2.64567041
B        0.00000000       0.00000000       1.94747475       0.00000000       0.00000000      -2.64567041
2
Properties=species:S:1:pos:R:3:forces:R:3 energy=-3.949539725259834 pbc="F F F"
B        0.00000000       0.00000000       0.00000000       0.00000000       0.00000000       2.82559729
B        0.00000000       0.00000000       2.00707071       0.00000000       0.00000000      -2.82559729
2
Properties=species:S:1:pos:R:3:forces:R:3 energy=-3.776175280037884 pbc="F F F"
B        0.00000000       0.00000000       0.00000000       0.00000000       0.00000000       2.99059224
B        0.00000000       0.00000000       2.06666667       0.00000000       0.00000000      -2.99059224
2
Properties=species:S:1:pos:R:3:forces:R:3 energy=-3.5933433094899696 pbc="F F F"
B        0.00000000       0.00000000       0.00000000       0.00000000       0.00000000       3.14186406
B        0.00000000       0.00000000       2.12626263       0.00000000       0.00000000      -3.14186406
2
Properties=species:S:1:pos:R:3:forces:R:3 energy=-3.402196984454133 pbc="F F F"
B        0.00000000       0.00000000       0.00000000       0.00000000       0.00000000       3.26814246
B        0.00000000       0.00000000       2.18585859       0.00000000       0.00000000      -3.26814246
2
Properties=species:S:1:pos:R:3:forces:R:3 energy=-3.2043625841885426 pbc="F F F"
B        0.00000000       0.00000000       0.00000000       0.00000000       0.00000000       3.36642432
B        0.00000000       0.00000000       2.24545455       0.00000000       0.00000000      -3.36642432
2
Properties=species:S:1:pos:R:3:forces:R:3 energy=-3.0015545998712927 pbc="F F F"
B        0.00000000       0.00000000       0.00000000       0.00000000       0.00000000       3.43382311
B        0.00000000       0.00000000       2.30505051       0.00000000       0.00000000      -3.43382311
2
Properties=species:S:1:pos:R:3:forces:R:3 energy=-2.7959142032859194 pbc="F F F"
B        0.00000000       0.00000000       0.00000000       0.00000000       0.00000000       3.45905042
B        0.00000000       0.00000000       2.36464646       0.00000000       0.00000000      -3.45905042
2
Properties=species:S:1:pos:R:3:forces:R:3 energy=-2.5903716427127597 pbc="F F F"
B        0.00000000       0.00000000       0.00000000       0.00000000       0.00000000       3.42864060
B        0.00000000       0.00000000       2.42424242       0.00000000       0.00000000      -3.42864060
2
Properties=species:S:1:pos:R:3:forces:R:3 energy=-2.388512828045597 pbc="F F F"
B        0.00000000       0.00000000       0.00000000       0.00000000       0.00000000       3.33491969
B        0.00000000       0.00000000       2.48383838       0.00000000       0.00000000      -3.33491969
2
Properties=species:S:1:pos:R:3:forces:R:3 energy=-2.194119305650633 pbc="F F F"
B        0.00000000       0.00000000       0.00000000       0.00000000       0.00000000       3.17889023
B        0.00000000       0.00000000       2.54343434       0.00000000       0.00000000      -3.17889023
2
Properties=species:S:1:pos:R:3:forces:R:3 energy=-2.010689031264405 pbc="F F F"
B        0.00000000       0.00000000       0.00000000       0.00000000       0.00000000       2.96892047
B        0.00000000       0.00000000       2.60303030       0.00000000       0.00000000      -2.96892047
2
Properties=species:S:1:pos:R:3:forces:R:3 energy=-1.8410491964290094 pbc="F F F"
B        0.00000000       0.00000000       0.00000000       0.00000000       0.00000000       2.71871305
B        0.00000000       0.00000000       2.66262626       0.00000000       0.00000000      -2.71871305
2
Properties=species:S:1:pos:R:3:forces:R:3 energy=-1.6870954619393401 pbc="F F F"
B        0.00000000       0.00000000       0.00000000       0.00000000       0.00000000       2.44560504
B        0.00000000       0.00000000       2.72222222       0.00000000       0.00000000      -2.44560504
2
Properties=species:S:1:pos:R:3:forces:R:3 energy=-1.549641965054538 pbc="F F F"
B        0.00000000       0.00000000       0.00000000       0.00000000       0.00000000       2.16801143
B        0.00000000       0.00000000       2.78181818       0.00000000       0.00000000      -2.16801143
2
Properties=species:S:1:pos:R:3:forces:R:3 energy=-1.4284527280660577 pbc="F F F"
B        0.00000000       0.00000000       0.00000000       0.00000000       0.00000000       1.90200651
B        0.00000000       0.00000000       2.84141414       0.00000000       0.00000000      -1.90200651
2
Properties=species:S:1:pos:R:3:forces:R:3 energy=-1.322482857040327 pbc="F F F"
B        0.00000000       0.00000000       0.00000000       0.00000000       0.00000000       1.65871584
B        0.00000000       0.00000000       2.90101010       0.00000000       0.00000000      -1.65871584
2
Properties=species:S:1:pos:R:3:forces:R:3 energy=-1.2301877382057036 pbc="F F F"
B        0.00000000       0.00000000       0.00000000       0.00000000       0.00000000       1.44344652
B        0.00000000       0.00000000       2.96060606       0.00000000       0.00000000      -1.44344652
2
Properties=species:S:1:pos:R:3:forces:R:3 energy=-1.1498715385589382 pbc="F F F"
B        0.00000000       0.00000000       0.00000000       0.00000000       0.00000000       1.25642824
B        0.00000000       0.00000000       3.02020202       0.00000000       0.00000000      -1.25642824
2
Properties=species:S:1:pos:R:3:forces:R:3 energy=-1.0799340241154722 pbc="F F F"
B        0.00000000       0.00000000       0.00000000       0.00000000       0.00000000       1.09441149
B        0.00000000       0.00000000       3.07979798       0.00000000       0.00000000      -1.09441149
2
Properties=species:S:1:pos:R:3:forces:R:3 energy=-1.0190262915911028 pbc="F F F"
B        0.00000000       0.00000000       0.00000000       0.00000000       0.00000000       0.95258039
B        0.00000000       0.00000000       3.13939394       0.00000000       0.00000000      -0.95258039
2
Properties=species:S:1:pos:R:3:forces:R:3 energy=-0.9660874543528939 pbc="F F F"
B        0.00000000       0.00000000       0.00000000       0.00000000       0.00000000       0.82622659
B        0.00000000       0.00000000       3.19898990       0.00000000       0.00000000      -0.82622659
2
Properties=species:S:1:pos:R:3:forces:R:3 energy=-0.9203078004130608 pbc="F F F"
B        0.00000000       0.00000000       0.00000000       0.00000000       0.00000000       0.71193880
B        0.00000000       0.00000000       3.25858586       0.00000000       0.00000000      -0.71193880
2
Properties=species:S:1:pos:R:3:forces:R:3 energy=-0.8810240454773216 pbc="F F F"
B        0.00000000       0.00000000       0.00000000       0.00000000       0.00000000       0.60809582
B        0.00000000       0.00000000       3.31818182       0.00000000       0.00000000      -0.60809582
2
Properties=species:S:1:pos:R:3:forces:R:3 energy=-0.8476201639032376 pbc="F F F"
B        0.00000000       0.00000000       0.00000000       0.00000000       0.00000000       0.51473880
B        0.00000000       0.00000000       3.37777778       0.00000000       0.00000000      -0.51473880
2
Properties=species:S:1:pos:R:3:forces:R:3 energy=-0.8194411908804022 pbc="F F F"
B        0.00000000       0.00000000       0.00000000       0.00000000       0.00000000       0.43298700
B        0.00000000       0.00000000       3.43737374       0.00000000       0.00000000      -0.43298700
2
Properties=species:S:1:pos:R:3:forces:R:3 energy=-0.7957519067401279 pbc="F F F"
B        0.00000000       0.00000000       0.00000000       0.00000000       0.00000000       0.36427701
B        0.00000000       0.00000000       3.49696970       0.00000000       0.00000000      -0.36427701
2
Properties=species:S:1:pos:R:3:forces:R:3 energy=-0.7757414132578293 pbc="F F F"
B        0.00000000       0.00000000       0.00000000       0.00000000       0.00000000       0.30965534
B        0.00000000       0.00000000       3.55656566       0.00000000       0.00000000      -0.30965534
2
Properties=species:S:1:pos:R:3:forces:R:3 energy=-0.7585591927111845 pbc="F F F"
B        0.00000000       0.00000000       0.00000000       0.00000000       0.00000000       0.26931253
B        0.00000000       0.00000000       3.61616162       0.00000000       0.00000000      -0.26931253
2
Properties=species:S:1:pos:R:3:forces:R:3 energy=-0.7433747687937157 pbc="F F F"
B        0.00000000       0.00000000       0.00000000       0.00000000       0.00000000       0.24237496
B        0.00000000       0.00000000       3.67575758       0.00000000       0.00000000      -0.24237496
2
Properties=species:S:1:pos:R:3:forces:R:3 energy=-0.7294409190484553 pbc="F F F"
B        0.00000000       0.00000000       0.00000000       0.00000000       0.00000000       0.22695562
B        0.00000000       0.00000000       3.73535354       0.00000000       0.00000000      -0.22695562
2
Properties=species:S:1:pos:R:3:forces:R:3 energy=-0.7161470604547805 pbc="F F F"
B        0.00000000       0.00000000       0.00000000       0.00000000       0.00000000       0.22039908
B        0.00000000       0.00000000       3.79494949       0.00000000       0.00000000      -0.22039908
2
Properties=species:S:1:pos:R:3:forces:R:3 energy=-0.7030568271130924 pbc="F F F"
B        0.00000000       0.00000000       0.00000000       0.00000000       0.00000000       0.21959540
B        0.00000000       0.00000000       3.85454545       0.00000000       0.00000000      -0.21959540
2
Properties=species:S:1:pos:R:3:forces:R:3 energy=-0.6899223868628988 pbc="F F F"
B        0.00000000       0.00000000       0.00000000       0.00000000       0.00000000       0.22135600
B        0.00000000       0.00000000       3.91414141       0.00000000       0.00000000      -0.22135600
2
Properties=species:S:1:pos:R:3:forces:R:3 energy=-0.6766808549166852 pbc="F F F"
B        0.00000000       0.00000000       0.00000000       0.00000000       0.00000000       0.22272462
B        0.00000000       0.00000000       3.97373737       0.00000000       0.00000000      -0.22272462
2
Properties=species:S:1:pos:R:3:forces:R:3 energy=-0.6634326161921732 pbc="F F F"
B        0.00000000       0.00000000       0.00000000       0.00000000       0.00000000       0.22123186
B        0.00000000       0.00000000       4.03333333       0.00000000       0.00000000      -0.22123186
2
Properties=species:S:1:pos:R:3:forces:R:3 energy=-0.6504054029264338 pbc="F F F"
B        0.00000000       0.00000000       0.00000000       0.00000000       0.00000000       0.21504714
B        0.00000000       0.00000000       4.09292929       0.00000000       0.00000000      -0.21504714
2
Properties=species:S:1:pos:R:3:forces:R:3 energy=-0.6379162579930298 pbc="F F F"
B        0.00000000       0.00000000       0.00000000       0.00000000       0.00000000       0.20306478
B        0.00000000       0.00000000       4.15252525       0.00000000       0.00000000      -0.20306478
2
Properties=species:S:1:pos:R:3:forces:R:3 energy=-0.6263233585099269 pbc="F F F"
B        0.00000000       0.00000000       0.00000000       0.00000000       0.00000000       0.18498313
B        0.00000000       0.00000000       4.21212121       0.00000000       0.00000000      -0.18498313
2
Properties=species:S:1:pos:R:3:forces:R:3 energy=-0.6159787634034068 pbc="F F F"
B        0.00000000       0.00000000       0.00000000       0.00000000       0.00000000       0.16133980
B        0.00000000       0.00000000       4.27171717       0.00000000       0.00000000      -0.16133980
2
Properties=species:S:1:pos:R:3:forces:R:3 energy=-0.6071769021157132 pbc="F F F"
B        0.00000000       0.00000000       0.00000000       0.00000000       0.00000000       0.13350675
B        0.00000000       0.00000000       4.33131313       0.00000000       0.00000000      -0.13350675
2
Properties=species:S:1:pos:R:3:forces:R:3 energy=-0.6001086429746164 pbc="F F F"
B        0.00000000       0.00000000       0.00000000       0.00000000       0.00000000       0.10352886
B        0.00000000       0.00000000       4.39090909       0.00000000       0.00000000      -0.10352886
2
Properties=species:S:1:pos:R:3:forces:R:3 energy=-0.5948315439320471 pbc="F F F"
B        0.00000000       0.00000000       0.00000000       0.00000000       0.00000000       0.07382040
B        0.00000000       0.00000000       4.45050505       0.00000000       0.00000000      -0.07382040
2
Properties=species:S:1:pos:R:3:forces:R:3 energy=-0.5912570413172673 pbc="F F F"
B        0.00000000       0.00000000       0.00000000       0.00000000       0.00000000       0.04674884
B        0.00000000       0.00000000       4.51010101       0.00000000       0.00000000      -0.04674884
2
Properties=species:S:1:pos:R:3:forces:R:3 energy=-0.5891691694471284 pbc="F F F"
B        0.00000000       0.00000000       0.00000000       0.00000000       0.00000000       0.02418295
B        0.00000000       0.00000000       4.56969697       0.00000000       0.00000000      -0.02418295
2
Properties=species:S:1:pos:R:3:forces:R:3 energy=-0.5882637373007749 pbc="F F F"
B        0.00000000       0.00000000       0.00000000       0.00000000       0.00000000       0.00715957
B        0.00000000       0.00000000       4.62929293       0.00000000       0.00000000      -0.00715957
2
Properties=species:S:1:pos:R:3:forces:R:3 energy=-0.5882043877719998 pbc="F F F"
B        0.00000000       0.00000000       0.00000000       0.00000000       0.00000000      -0.00426821
B        0.00000000       0.00000000       4.68888889       0.00000000       0.00000000       0.00426821
2
Properties=species:S:1:pos:R:3:forces:R:3 energy=-0.588677677696726 pbc="F F F"
B        0.00000000       0.00000000       0.00000000       0.00000000       0.00000000      -0.01093160
B        0.00000000       0.00000000       4.74848485       0.00000000       0.00000000       0.01093160
2
Properties=species:S:1:pos:R:3:forces:R:3 energy=-0.5894394534344637 pbc="F F F"
B        0.00000000       0.00000000       0.00000000       0.00000000       0.00000000      -0.01419082
B        0.00000000       0.00000000       4.80808081       0.00000000       0.00000000       0.01419082
2
Properties=species:S:1:pos:R:3:forces:R:3 energy=-0.5903294155764554 pbc="F F F"
B        0.00000000       0.00000000       0.00000000       0.00000000       0.00000000      -0.01544027
B        0.00000000       0.00000000       4.86767677       0.00000000       0.00000000       0.01544027
2
Properties=species:S:1:pos:R:3:forces:R:3 energy=-0.591259075243632 pbc="F F F"
B        0.00000000       0.00000000       0.00000000       0.00000000       0.00000000      -0.01561547
B        0.00000000       0.00000000       4.92727273       0.00000000       0.00000000       0.01561547
2
Properties=species:S:1:pos:R:3:forces:R:3 energy=-0.5921738692912011 pbc="F F F"
B        0.00000000       0.00000000       0.00000000       0.00000000       0.00000000      -0.01491591
B        0.00000000       0.00000000       4.98686869       0.00000000       0.00000000       0.01491591
2
Properties=species:S:1:pos:R:3:forces:R:3 energy=-0.5930105734779211 pbc="F F F"
B        0.00000000       0.00000000       0.00000000       0.00000000       0.00000000      -0.01288069
B        0.00000000       0.00000000       5.04646465       0.00000000       0.00000000       0.01288069
2
Properties=species:S:1:pos:R:3:forces:R:3 energy=-0.5936692160071231 pbc="F F F"
B        0.00000000       0.00000000       0.00000000       0.00000000       0.00000000      -0.00885135
B        0.00000000       0.00000000       5.10606061       0.00000000       0.00000000       0.00885135
2
Properties=species:S:1:pos:R:3:forces:R:3 energy=-0.5940209865215097 pbc="F F F"
B        0.00000000       0.00000000       0.00000000       0.00000000       0.00000000      -0.00261205
B        0.00000000       0.00000000       5.16565657       0.00000000       0.00000000       0.00261205
2
Properties=species:S:1:pos:R:3:forces:R:3 energy=-0.5939495843036069 pbc="F F F"
B        0.00000000       0.00000000       0.00000000       0.00000000       0.00000000       0.00515135
B        0.00000000       0.00000000       5.22525253       0.00000000       0.00000000      -0.00515135
2
Properties=species:S:1:pos:R:3:forces:R:3 energy=-0.5934069604979622 pbc="F F F"
B        0.00000000       0.00000000       0.00000000       0.00000000       0.00000000       0.01290477
B        0.00000000       0.00000000       5.28484848       0.00000000       0.00000000      -0.01290477
2
Properties=species:S:1:pos:R:3:forces:R:3 energy=-0.5924482547485161 pbc="F F F"
B        0.00000000       0.00000000       0.00000000       0.00000000       0.00000000       0.01883278
B        0.00000000       0.00000000       5.34444444       0.00000000       0.00000000      -0.01883278
2
Properties=species:S:1:pos:R:3:forces:R:3 energy=-0.5912202786328831 pbc="F F F"
B        0.00000000       0.00000000       0.00000000       0.00000000       0.00000000       0.02191077
B        0.00000000       0.00000000       5.40404040       0.00000000       0.00000000      -0.02191077
2
Properties=species:S:1:pos:R:3:forces:R:3 energy=-0.5898774877643959 pbc="F F F"
B        0.00000000       0.00000000       0.00000000       0.00000000       0.00000000       0.02289400
B        0.00000000       0.00000000       5.46363636       0.00000000       0.00000000      -0.02289400
2
Properties=species:S:1:pos:R:3:forces:R:3 energy=-0.5885266564064425 pbc="F F F"
B        0.00000000       0.00000000       0.00000000       0.00000000       0.00000000       0.02207868
B        0.00000000       0.00000000       5.52323232       0.00000000       0.00000000      -0.02207868
2
Properties=species:S:1:pos:R:3:forces:R:3 energy=-0.5872898255210386 pbc="F F F"
B        0.00000000       0.00000000       0.00000000       0.00000000       0.00000000       0.01920032
B        0.00000000       0.00000000       5.58282828       0.00000000       0.00000000      -0.01920032
2
Properties=species:S:1:pos:R:3:forces:R:3 energy=-0.5862420072035257 pbc="F F F"
B        0.00000000       0.00000000       0.00000000       0.00000000       0.00000000       0.01606796
B        0.00000000       0.00000000       5.64242424       0.00000000       0.00000000      -0.01606796
2
Properties=species:S:1:pos:R:3:forces:R:3 energy=-0.5853609961857484 pbc="F F F"
B        0.00000000       0.00000000       0.00000000       0.00000000       0.00000000       0.01350700
B        0.00000000       0.00000000       5.70202020       0.00000000       0.00000000      -0.01350700
2
Properties=species:S:1:pos:R:3:forces:R:3 energy=-0.5846550479348852 pbc="F F F"
B        0.00000000       0.00000000       0.00000000       0.00000000       0.00000000       0.00979372
B        0.00000000       0.00000000       5.76161616       0.00000000       0.00000000      -0.00979372
2
Properties=species:S:1:pos:R:3:forces:R:3 energy=-0.5842375472362527 pbc="F F F"
B        0.00000000       0.00000000       0.00000000       0.00000000       0.00000000       0.00418983
B        0.00000000       0.00000000       5.82121212       0.00000000       0.00000000      -0.00418983
2
Properties=species:S:1:pos:R:3:forces:R:3 energy=-0.5841012329264957 pbc="F F F"
B        0.00000000       0.00000000       0.00000000       0.00000000       0.00000000       0.00109905
B        0.00000000       0.00000000       5.88080808       0.00000000       0.00000000      -0.00109905
2
Properties=species:S:1:pos:R:3:forces:R:3 energy=-0.5840396904588746 pbc="F F F"
B        0.00000000       0.00000000       0.00000000       0.00000000       0.00000000       0.00126640
B        0.00000000       0.00000000       5.94040404       0.00000000       0.00000000      -0.00126640
2
Properties=species:S:1:pos:R:3:forces:R:3 energy=-0.5839489501189005 pbc="F F F"
B        0.00000000       0.00000000       0.00000000       0.00000000       0.00000000       0.00162845
B        0.00000000       0.00000000       6.00000000       0.00000000       0.00000000      -0.00162845
