2
Properties=species:S:1:pos:R:3:forces:R:3 energy=10135.069067773382 pbc="F F F"
Ba       0.00000000       0.00000000       0.00000000       0.00000000       0.00000000 -171356.23437500
Ba       0.00000000       0.00000000       0.18000000       0.00000000       0.00000000  171356.23437500
2
Properties=species:S:1:pos:R:3:forces:R:3 energy=4077.700659570257 pbc="F F F"
Ba       0.00000000       0.00000000       0.00000000       0.00000000       0.00000000  -58270.43750000
Ba       0.00000000       0.00000000       0.23878788       0.00000000       0.00000000   58270.43750000
2
Properties=species:S:1:pos:R:3:forces:R:3 energy=1856.2031009765071 pbc="F F F"
Ba       0.00000000       0.00000000       0.00000000       0.00000000       0.00000000  -23343.48437500
Ba       0.00000000       0.00000000       0.29757576       0.00000000       0.00000000   23343.48437500
2
Properties=species:S:1:pos:R:3:forces:R:3 energy=923.3529422851009 pbc="F F F"
Ba       0.00000000       0.00000000       0.00000000       0.00000000       0.00000000  -10351.18359375
Ba       0.00000000       0.00000000       0.35636364       0.00000000       0.00000000   10351.18359375
2
Properties=species:S:1:pos:R:3:forces:R:3 energy=495.9913700194759 pbc="F F F"
Ba       0.00000000       0.00000000       0.00000000       0.00000000       0.00000000   -4927.13330078
Ba       0.00000000       0.00000000       0.41515152       0.00000000       0.00000000    4927.13330078
2
Properties=species:S:1:pos:R:3:forces:R:3 energy=287.31186562494463 pbc="F F F"
Ba       0.00000000       0.00000000       0.00000000       0.00000000       0.00000000   -2480.21679688
Ba       0.00000000       0.00000000       0.47393939       0.00000000       0.00000000    2480.21679688
2
Properties=species:S:1:pos:R:3:forces:R:3 energy=179.93614847452994 pbc="F F F"
Ba       0.00000000       0.00000000       0.00000000       0.00000000       0.00000000   -1310.20861816
Ba       0.00000000       0.00000000       0.53272727       0.00000000       0.00000000    1310.20861816
2
Properties=species:S:1:pos:R:3:forces:R:3 energy=122.07041820155672 pbc="F F F"
Ba       0.00000000       0.00000000       0.00000000       0.00000000       0.00000000    -723.12988281
Ba       0.00000000       0.00000000       0.59151515       0.00000000       0.00000000     723.12988281
2
Properties=species:S:1:pos:R:3:forces:R:3 energy=89.5284031385444 pbc="F F F"
Ba       0.00000000       0.00000000       0.00000000       0.00000000       0.00000000    -415.86419678
Ba       0.00000000       0.00000000       0.65030303       0.00000000       0.00000000     415.86419678
2
Properties=species:S:1:pos:R:3:forces:R:3 energy=70.46721541974637 pbc="F F F"
Ba       0.00000000       0.00000000       0.00000000       0.00000000       0.00000000    -249.00778198
Ba       0.00000000       0.00000000       0.70909091       0.00000000       0.00000000     249.00778198
2
Properties=species:S:1:pos:R:3:forces:R:3 energy=58.83178608810729 pbc="F F F"
Ba       0.00000000       0.00000000       0.00000000       0.00000000       0.00000000    -155.62202454
Ba       0.00000000       0.00000000       0.76787879       0.00000000       0.00000000     155.62202454
2
Properties=species:S:1:pos:R:3:forces:R:3 energy=51.39477443271374 pbc="F F F"
Ba       0.00000000       0.00000000       0.00000000       0.00000000       0.00000000    -102.29231262
Ba       0.00000000       0.00000000       0.82666667       0.00000000       0.00000000     102.29231262
2
Properties=species:S:1:pos:R:3:forces:R:3 energy=46.363806821681706 pbc="F F F"
Ba       0.00000000       0.00000000       0.00000000       0.00000000       0.00000000     -71.71419525
Ba       0.00000000       0.00000000       0.88545455       0.00000000       0.00000000      71.71419525
2
Properties=species:S:1:pos:R:3:forces:R:3 energy=42.701850161285215 pbc="F F F"
Ba       0.00000000       0.00000000       0.00000000       0.00000000       0.00000000     -54.58823395
Ba       0.00000000       0.00000000       0.94424242       0.00000000       0.00000000      54.58823395
2
Properties=species:S:1:pos:R:3:forces:R:3 energy=39.785209103331695 pbc="F F F"
Ba       0.00000000       0.00000000       0.00000000       0.00000000       0.00000000     -45.71191788
Ba       0.00000000       0.00000000       1.00303030       0.00000000       0.00000000      45.71191788
2
Properties=species:S:1:pos:R:3:forces:R:3 energy=37.22589843100024 pbc="F F F"
Ba       0.00000000       0.00000000       0.00000000       0.00000000       0.00000000     -42.04636383
Ba       0.00000000       0.00000000       1.06181818       0.00000000       0.00000000      42.04636383
2
Properties=species:S:1:pos:R:3:forces:R:3 energy=34.77580263008265 pbc="F F F"
Ba       0.00000000       0.00000000       0.00000000       0.00000000       0.00000000     -41.76225281
Ba       0.00000000       0.00000000       1.12060606       0.00000000       0.00000000      41.76225281
2
Properties=species:S:1:pos:R:3:forces:R:3 energy=32.27130933485626 pbc="F F F"
Ba       0.00000000       0.00000000       0.00000000       0.00000000       0.00000000     -43.75307846
Ba       0.00000000       0.00000000       1.17939394       0.00000000       0.00000000      43.75307846
2
Properties=species:S:1:pos:R:3:forces:R:3 energy=29.60219862789062 pbc="F F F"
Ba       0.00000000       0.00000000       0.00000000       0.00000000       0.00000000     -47.23189545
Ba       0.00000000       0.00000000       1.23818182       0.00000000       0.00000000      47.23189545
2
Properties=species:S:1:pos:R:3:forces:R:3 energy=26.70685172959665 pbc="F F F"
Ba       0.00000000       0.00000000       0.00000000       0.00000000       0.00000000     -51.26873398
Ba       0.00000000       0.00000000       1.29696970       0.00000000       0.00000000      51.26873398
2
Properties=species:S:1:pos:R:3:forces:R:3 energy=23.585341144564975 pbc="F F F"
Ba       0.00000000       0.00000000       0.00000000       0.00000000       0.00000000     -54.74742508
Ba       0.00000000       0.00000000       1.35575758       0.00000000       0.00000000      54.74742508
2
Properties=species:S:1:pos:R:3:forces:R:3 energy=20.301364738422162 pbc="F F F"
Ba       0.00000000       0.00000000       0.00000000       0.00000000       0.00000000     -56.60388947
Ba       0.00000000       0.00000000       1.41454545       0.00000000       0.00000000      56.60388947
2
Properties=species:S:1:pos:R:3:forces:R:3 energy=16.988267199450625 pbc="F F F"
Ba       0.00000000       0.00000000       0.00000000       0.00000000       0.00000000     -55.50011444
Ba       0.00000000       0.00000000       1.47333333       0.00000000       0.00000000      55.50011444
2
Properties=species:S:1:pos:R:3:forces:R:3 energy=13.853518518521073 pbc="F F F"
Ba       0.00000000       0.00000000       0.00000000       0.00000000       0.00000000     -50.50633240
Ba       0.00000000       0.00000000       1.53212121       0.00000000       0.00000000      50.50633240
2
Properties=species:S:1:pos:R:3:forces:R:3 energy=11.109016609026561 pbc="F F F"
Ba       0.00000000       0.00000000       0.00000000       0.00000000       0.00000000     -42.55942154
Ba       0.00000000       0.00000000       1.59090909       0.00000000       0.00000000      42.55942154
2
Properties=species:S:1:pos:R:3:forces:R:3 energy=8.858689133956938 pbc="F F F"
Ba       0.00000000       0.00000000       0.00000000       0.00000000       0.00000000     -34.12052155
Ba       0.00000000       0.00000000       1.64969697       0.00000000       0.00000000      34.12052155
2
Properties=species:S:1:pos:R:3:forces:R:3 energy=7.068840001053994 pbc="F F F"
Ba       0.00000000       0.00000000       0.00000000       0.00000000       0.00000000     -27.06876373
Ba       0.00000000       0.00000000       1.70848485       0.00000000       0.00000000      27.06876373
2
Properties=species:S:1:pos:R:3:forces:R:3 energy=5.643543020562356 pbc="F F F"
Ba       0.00000000       0.00000000       0.00000000       0.00000000       0.00000000     -21.64706612
Ba       0.00000000       0.00000000       1.76727273       0.00000000       0.00000000      21.64706612
2
Properties=species:S:1:pos:R:3:forces:R:3 energy=4.503203662723816 pbc="F F F"
Ba       0.00000000       0.00000000       0.00000000       0.00000000       0.00000000     -17.29511642
Ba       0.00000000       0.00000000       1.82606061       0.00000000       0.00000000      17.29511642
2
Properties=species:S:1:pos:R:3:forces:R:3 energy=3.590608258315814 pbc="F F F"
Ba       0.00000000       0.00000000       0.00000000       0.00000000       0.00000000     -13.94713879
Ba       0.00000000       0.00000000       1.88484848       0.00000000       0.00000000      13.94713879
2
Properties=species:S:1:pos:R:3:forces:R:3 energy=2.8400974047053356 pbc="F F F"
Ba       0.00000000       0.00000000       0.00000000       0.00000000       0.00000000     -11.75290203
Ba       0.00000000       0.00000000       1.94363636       0.00000000       0.00000000      11.75290203
2
Properties=species:S:1:pos:R:3:forces:R:3 energy=2.1966165703290956 pbc="F F F"
Ba       0.00000000       0.00000000       0.00000000       0.00000000       0.00000000     -10.17557335
Ba       0.00000000       0.00000000       2.00242424       0.00000000       0.00000000      10.17557335
2
Properties=species:S:1:pos:R:3:forces:R:3 energy=1.6447297284215607 pbc="F F F"
Ba       0.00000000       0.00000000       0.00000000       0.00000000       0.00000000      -8.56955910
Ba       0.00000000       0.00000000       2.06121212       0.00000000       0.00000000       8.56955910
2
Properties=species:S:1:pos:R:3:forces:R:3 energy=1.1907341615563576 pbc="F F F"
Ba       0.00000000       0.00000000       0.00000000       0.00000000       0.00000000      -6.89712572
Ba       0.00000000       0.00000000       2.12000000       0.00000000       0.00000000       6.89712572
2
Properties=species:S:1:pos:R:3:forces:R:3 energy=0.8256912767707836 pbc="F F F"
Ba       0.00000000       0.00000000       0.00000000       0.00000000       0.00000000      -5.63286352
Ba       0.00000000       0.00000000       2.17878788       0.00000000       0.00000000       5.63286352
2
Properties=species:S:1:pos:R:3:forces:R:3 energy=0.5129715683083871 pbc="F F F"
Ba       0.00000000       0.00000000       0.00000000       0.00000000       0.00000000      -5.14047813
Ba       0.00000000       0.00000000       2.23757576       0.00000000       0.00000000       5.14047813
2
Properties=species:S:1:pos:R:3:forces:R:3 energy=0.2077478410235527 pbc="F F F"
Ba       0.00000000       0.00000000       0.00000000       0.00000000       0.00000000      -5.33039522
Ba       0.00000000       0.00000000       2.29636364       0.00000000       0.00000000       5.33039522
2
Properties=species:S:1:pos:R:3:forces:R:3 energy=-0.12006355905885059 pbc="F F F"
Ba       0.00000000       0.00000000       0.00000000       0.00000000       0.00000000      -5.84343100
Ba       0.00000000       0.00000000       2.35515152       0.00000000       0.00000000       5.84343100
2
Properties=species:S:1:pos:R:3:forces:R:3 energy=-0.47863753851444163 pbc="F F F"
Ba       0.00000000       0.00000000       0.00000000       0.00000000       0.00000000      -6.32738304
Ba       0.00000000       0.00000000       2.41393939       0.00000000       0.00000000       6.32738304
2
Properties=species:S:1:pos:R:3:forces:R:3 energy=-0.8589544995803058 pbc="F F F"
Ba       0.00000000       0.00000000       0.00000000       0.00000000       0.00000000      -6.55821419
Ba       0.00000000       0.00000000       2.47272727       0.00000000       0.00000000       6.55821419
2
Properties=species:S:1:pos:R:3:forces:R:3 energy=-1.2431440886023402 pbc="F F F"
Ba       0.00000000       0.00000000       0.00000000       0.00000000       0.00000000      -6.45713615
Ba       0.00000000       0.00000000       2.53151515       0.00000000       0.00000000       6.45713615
2
Properties=species:S:1:pos:R:3:forces:R:3 energy=-1.612334730942485 pbc="F F F"
Ba       0.00000000       0.00000000       0.00000000       0.00000000       0.00000000      -6.06082058
Ba       0.00000000       0.00000000       2.59030303       0.00000000       0.00000000       6.06082058
2
Properties=species:S:1:pos:R:3:forces:R:3 energy=-1.9518380936664426 pbc="F F F"
Ba       0.00000000       0.00000000       0.00000000       0.00000000       0.00000000      -5.46494055
Ba       0.00000000       0.00000000       2.64909091       0.00000000       0.00000000       5.46494055
2
Properties=species:S:1:pos:R:3:forces:R:3 energy=-2.2529663344643787 pbc="F F F"
Ba       0.00000000       0.00000000       0.00000000       0.00000000       0.00000000      -4.77072477
Ba       0.00000000       0.00000000       2.70787879       0.00000000       0.00000000       4.77072477
2
Properties=species:S:1:pos:R:3:forces:R:3 energy=-2.512394165385052 pbc="F F F"
Ba       0.00000000       0.00000000       0.00000000       0.00000000       0.00000000      -4.05694008
Ba       0.00000000       0.00000000       2.76666667       0.00000000       0.00000000       4.05694008
2
Properties=species:S:1:pos:R:3:forces:R:3 energy=-2.7306131675247043 pbc="F F F"
Ba       0.00000000       0.00000000       0.00000000       0.00000000       0.00000000      -3.37552404
Ba       0.00000000       0.00000000       2.82545455       0.00000000       0.00000000       3.37552404
2
Properties=species:S:1:pos:R:3:forces:R:3 energy=-2.9105267002972575 pbc="F F F"
Ba       0.00000000       0.00000000       0.00000000       0.00000000       0.00000000      -2.75760078
Ba       0.00000000       0.00000000       2.88424242       0.00000000       0.00000000       2.75760078
2
Properties=species:S:1:pos:R:3:forces:R:3 energy=-3.0564241396880396 pbc="F F F"
Ba       0.00000000       0.00000000       0.00000000       0.00000000       0.00000000      -2.22016168
Ba       0.00000000       0.00000000       2.94303030       0.00000000       0.00000000       2.22016168
2
Properties=species:S:1:pos:R:3:forces:R:3 energy=-3.173284614631199 pbc="F F F"
Ba       0.00000000       0.00000000       0.00000000       0.00000000       0.00000000      -1.77024984
Ba       0.00000000       0.00000000       3.00181818       0.00000000       0.00000000       1.77024984
2
Properties=species:S:1:pos:R:3:forces:R:3 energy=-3.266269334499395 pbc="F F F"
Ba       0.00000000       0.00000000       0.00000000       0.00000000       0.00000000      -1.40724421
Ba       0.00000000       0.00000000       3.06060606       0.00000000       0.00000000       1.40724421
2
Properties=species:S:1:pos:R:3:forces:R:3 energy=-3.340319213897937 pbc="F F F"
Ba       0.00000000       0.00000000       0.00000000       0.00000000       0.00000000      -1.12454879
Ba       0.00000000       0.00000000       3.11939394       0.00000000       0.00000000       1.12454879
2
Properties=species:S:1:pos:R:3:forces:R:3 energy=-3.399854221172961 pbc="F F F"
Ba       0.00000000       0.00000000       0.00000000       0.00000000       0.00000000      -0.91143930
Ba       0.00000000       0.00000000       3.17818182       0.00000000       0.00000000       0.91143930
2
Properties=species:S:1:pos:R:3:forces:R:3 energy=-3.448591095904372 pbc="F F F"
Ba       0.00000000       0.00000000       0.00000000       0.00000000       0.00000000      -0.75490087
Ba       0.00000000       0.00000000       3.23696970       0.00000000       0.00000000       0.75490087
2
Properties=species:S:1:pos:R:3:forces:R:3 energy=-3.4894517131360208 pbc="F F F"
Ba       0.00000000       0.00000000       0.00000000       0.00000000       0.00000000      -0.64121574
Ba       0.00000000       0.00000000       3.29575758       0.00000000       0.00000000       0.64121574
2
Properties=species:S:1:pos:R:3:forces:R:3 energy=-3.5245651077739115 pbc="F F F"
Ba       0.00000000       0.00000000       0.00000000       0.00000000       0.00000000      -0.55732548
Ba       0.00000000       0.00000000       3.35454545       0.00000000       0.00000000       0.55732548
2
Properties=species:S:1:pos:R:3:forces:R:3 energy=-3.5553400615401975 pbc="F F F"
Ba       0.00000000       0.00000000       0.00000000       0.00000000       0.00000000      -0.49193048
Ba       0.00000000       0.00000000       3.41333333       0.00000000       0.00000000       0.49193048
2
Properties=species:S:1:pos:R:3:forces:R:3 energy=-3.5825914578123954 pbc="F F F"
Ba       0.00000000       0.00000000       0.00000000       0.00000000       0.00000000      -0.43616807
Ba       0.00000000       0.00000000       3.47212121       0.00000000       0.00000000       0.43616807
2
Properties=species:S:1:pos:R:3:forces:R:3 energy=-3.6066863488572287 pbc="F F F"
Ba       0.00000000       0.00000000       0.00000000       0.00000000       0.00000000      -0.38372117
Ba       0.00000000       0.00000000       3.53090909       0.00000000       0.00000000       0.38372117
2
Properties=species:S:1:pos:R:3:forces:R:3 energy=-3.627693114826222 pbc="F F F"
Ba       0.00000000       0.00000000       0.00000000       0.00000000       0.00000000      -0.33059546
Ba       0.00000000       0.00000000       3.58969697       0.00000000       0.00000000       0.33059546
2
Properties=species:S:1:pos:R:3:forces:R:3 energy=-3.6455036164315766 pbc="F F F"
Ba       0.00000000       0.00000000       0.00000000       0.00000000       0.00000000      -0.27482471
Ba       0.00000000       0.00000000       3.64848485       0.00000000       0.00000000       0.27482471
2
Properties=species:S:1:pos:R:3:forces:R:3 energy=-3.6599473784386283 pbc="F F F"
Ba       0.00000000       0.00000000       0.00000000       0.00000000       0.00000000      -0.21613088
Ba       0.00000000       0.00000000       3.70727273       0.00000000       0.00000000       0.21613088
2
Properties=species:S:1:pos:R:3:forces:R:3 energy=-3.670876652077526 pbc="F F F"
Ba       0.00000000       0.00000000       0.00000000       0.00000000       0.00000000      -0.15551332
Ba       0.00000000       0.00000000       3.76606061       0.00000000       0.00000000       0.15551332
2
Properties=species:S:1:pos:R:3:forces:R:3 energy=-3.678229696664936 pbc="F F F"
Ba       0.00000000       0.00000000       0.00000000       0.00000000       0.00000000      -0.09478842
Ba       0.00000000       0.00000000       3.82484848       0.00000000       0.00000000       0.09478842
2
Properties=species:S:1:pos:R:3:forces:R:3 energy=-3.6820629844470854 pbc="F F F"
Ba       0.00000000       0.00000000       0.00000000       0.00000000       0.00000000      -0.03616827
Ba       0.00000000       0.00000000       3.88363636       0.00000000       0.00000000       0.03616827
2
Properties=species:S:1:pos:R:3:forces:R:3 energy=-3.6825670979447604 pbc="F F F"
Ba       0.00000000       0.00000000       0.00000000       0.00000000       0.00000000       0.01811799
Ba       0.00000000       0.00000000       3.94242424       0.00000000       0.00000000      -0.01811799
2
Properties=species:S:1:pos:R:3:forces:R:3 energy=-3.6800548790361414 pbc="F F F"
Ba       0.00000000       0.00000000       0.00000000       0.00000000       0.00000000       0.06620765
Ba       0.00000000       0.00000000       4.00121212       0.00000000       0.00000000      -0.06620765
2
Properties=species:S:1:pos:R:3:forces:R:3 energy=-3.6749291964352744 pbc="F F F"
Ba       0.00000000       0.00000000       0.00000000       0.00000000       0.00000000       0.10686976
Ba       0.00000000       0.00000000       4.06000000       0.00000000       0.00000000      -0.10686976
2
Properties=species:S:1:pos:R:3:forces:R:3 energy=-3.6676461555390656 pbc="F F F"
Ba       0.00000000       0.00000000       0.00000000       0.00000000       0.00000000       0.13955924
Ba       0.00000000       0.00000000       4.11878788       0.00000000       0.00000000      -0.13955924
2
Properties=species:S:1:pos:R:3:forces:R:3 energy=-3.6586755876599315 pbc="F F F"
Ba       0.00000000       0.00000000       0.00000000       0.00000000       0.00000000       0.16430776
Ba       0.00000000       0.00000000       4.17757576       0.00000000       0.00000000      -0.16430776
2
Properties=species:S:1:pos:R:3:forces:R:3 energy=-3.648473758634758 pbc="F F F"
Ba       0.00000000       0.00000000       0.00000000       0.00000000       0.00000000       0.18159840
Ba       0.00000000       0.00000000       4.23636364       0.00000000       0.00000000      -0.18159840
2
Properties=species:S:1:pos:R:3:forces:R:3 energy=-3.6374533121503103 pbc="F F F"
Ba       0.00000000       0.00000000       0.00000000       0.00000000       0.00000000       0.19230397
Ba       0.00000000       0.00000000       4.29515152       0.00000000       0.00000000      -0.19230397
2
Properties=species:S:1:pos:R:3:forces:R:3 energy=-3.6259689956999765 pbc="F F F"
Ba       0.00000000       0.00000000       0.00000000       0.00000000       0.00000000       0.19764450
Ba       0.00000000       0.00000000       4.35393939       0.00000000       0.00000000      -0.19764450
2
Properties=species:S:1:pos:R:3:forces:R:3 energy=-3.6142911151349177 pbc="F F F"
Ba       0.00000000       0.00000000       0.00000000       0.00000000       0.00000000       0.19913739
Ba       0.00000000       0.00000000       4.41272727       0.00000000       0.00000000      -0.19913739
2
Properties=species:S:1:pos:R:3:forces:R:3 energy=-3.602595132912938 pbc="F F F"
Ba       0.00000000       0.00000000       0.00000000       0.00000000       0.00000000       0.19858806
Ba       0.00000000       0.00000000       4.47151515       0.00000000       0.00000000      -0.19858806
2
Properties=species:S:1:pos:R:3:forces:R:3 energy=-3.5909390768220937 pbc="F F F"
Ba       0.00000000       0.00000000       0.00000000       0.00000000       0.00000000       0.19818564
Ba       0.00000000       0.00000000       4.53030303       0.00000000       0.00000000      -0.19818564
2
Properties=species:S:1:pos:R:3:forces:R:3 energy=-3.5792385886733067 pbc="F F F"
Ba       0.00000000       0.00000000       0.00000000       0.00000000       0.00000000       0.20061028
Ba       0.00000000       0.00000000       4.58909091       0.00000000       0.00000000      -0.20061028
2
Properties=species:S:1:pos:R:3:forces:R:3 energy=-3.5672391792608757 pbc="F F F"
Ba       0.00000000       0.00000000       0.00000000       0.00000000       0.00000000       0.20880266
Ba       0.00000000       0.00000000       4.64787879       0.00000000       0.00000000      -0.20880266
2
Properties=species:S:1:pos:R:3:forces:R:3 energy=-3.5545299444186615 pbc="F F F"
Ba       0.00000000       0.00000000       0.00000000       0.00000000       0.00000000       0.22501019
Ba       0.00000000       0.00000000       4.70666667       0.00000000       0.00000000      -0.22501019
2
Properties=species:S:1:pos:R:3:forces:R:3 energy=-3.5406134960999807 pbc="F F F"
Ba       0.00000000       0.00000000       0.00000000       0.00000000       0.00000000       0.24983728
Ba       0.00000000       0.00000000       4.76545455       0.00000000       0.00000000      -0.24983728
2
Properties=species:S:1:pos:R:3:forces:R:3 energy=-3.5249999208179252 pbc="F F F"
Ba       0.00000000       0.00000000       0.00000000       0.00000000       0.00000000       0.28255627
Ba       0.00000000       0.00000000       4.82424242       0.00000000       0.00000000      -0.28255627
2
Properties=species:S:1:pos:R:3:forces:R:3 energy=-3.5072480413677476 pbc="F F F"
Ba       0.00000000       0.00000000       0.00000000       0.00000000       0.00000000       0.32273358
Ba       0.00000000       0.00000000       4.88303030       0.00000000       0.00000000      -0.32273358
2
Properties=species:S:1:pos:R:3:forces:R:3 energy=-3.4868854526579667 pbc="F F F"
Ba       0.00000000       0.00000000       0.00000000       0.00000000       0.00000000       0.37159970
Ba       0.00000000       0.00000000       4.94181818       0.00000000       0.00000000      -0.37159970
2
Properties=species:S:1:pos:R:3:forces:R:3 energy=-3.463337523332266 pbc="F F F"
Ba       0.00000000       0.00000000       0.00000000       0.00000000       0.00000000       0.43159056
Ba       0.00000000       0.00000000       5.00060606       0.00000000       0.00000000      -0.43159056
2
Properties=species:S:1:pos:R:3:forces:R:3 energy=-3.4358938373948207 pbc="F F F"
Ba       0.00000000       0.00000000       0.00000000       0.00000000       0.00000000       0.50394642
Ba       0.00000000       0.00000000       5.05939394       0.00000000       0.00000000      -0.50394642
2
Properties=species:S:1:pos:R:3:forces:R:3 energy=-3.403916110309482 pbc="F F F"
Ba       0.00000000       0.00000000       0.00000000       0.00000000       0.00000000       0.58464861
Ba       0.00000000       0.00000000       5.11818182       0.00000000       0.00000000      -0.58464861
2
Properties=species:S:1:pos:R:3:forces:R:3 energy=-3.367248576616129 pbc="F F F"
Ba       0.00000000       0.00000000       0.00000000       0.00000000       0.00000000       0.66019613
Ba       0.00000000       0.00000000       5.17696970       0.00000000       0.00000000      -0.66019613
2
Properties=species:S:1:pos:R:3:forces:R:3 energy=-3.32685584932055 pbc="F F F"
Ba       0.00000000       0.00000000       0.00000000       0.00000000       0.00000000       0.70710415
Ba       0.00000000       0.00000000       5.23575758       0.00000000       0.00000000      -0.70710415
2
Properties=species:S:1:pos:R:3:forces:R:3 energy=-3.285072812579727 pbc="F F F"
Ba       0.00000000       0.00000000       0.00000000       0.00000000       0.00000000       0.70637763
Ba       0.00000000       0.00000000       5.29454545       0.00000000       0.00000000      -0.70637763
2
Properties=species:S:1:pos:R:3:forces:R:3 energy=-3.244317461518543 pbc="F F F"
Ba       0.00000000       0.00000000       0.00000000       0.00000000       0.00000000       0.68182218
Ba       0.00000000       0.00000000       5.35333333       0.00000000       0.00000000      -0.68182218
2
Properties=species:S:1:pos:R:3:forces:R:3 energy=-3.2038049940462305 pbc="F F F"
Ba       0.00000000       0.00000000       0.00000000       0.00000000       0.00000000       0.71159798
Ba       0.00000000       0.00000000       5.41212121       0.00000000       0.00000000      -0.71159798
2
Properties=species:S:1:pos:R:3:forces:R:3 energy=-3.159194766986217 pbc="F F F"
Ba       0.00000000       0.00000000       0.00000000       0.00000000       0.00000000       0.80888093
Ba       0.00000000       0.00000000       5.47090909       0.00000000       0.00000000      -0.80888093
2
Properties=species:S:1:pos:R:3:forces:R:3 energy=-3.109926219351408 pbc="F F F"
Ba       0.00000000       0.00000000       0.00000000       0.00000000       0.00000000       0.84672529
Ba       0.00000000       0.00000000       5.52969697       0.00000000       0.00000000      -0.84672529
2
Properties=species:S:1:pos:R:3:forces:R:3 energy=-3.061965739159727 pbc="F F F"
Ba       0.00000000       0.00000000       0.00000000       0.00000000       0.00000000       0.77278650
Ba       0.00000000       0.00000000       5.58848485       0.00000000       0.00000000      -0.77278650
2
Properties=species:S:1:pos:R:3:forces:R:3 energy=-3.0189342644732906 pbc="F F F"
Ba       0.00000000       0.00000000       0.00000000       0.00000000       0.00000000       0.70784938
Ba       0.00000000       0.00000000       5.64727273       0.00000000       0.00000000      -0.70784938
2
Properties=species:S:1:pos:R:3:forces:R:3 energy=-2.9757236669648015 pbc="F F F"
Ba       0.00000000       0.00000000       0.00000000       0.00000000       0.00000000       0.78890598
Ba       0.00000000       0.00000000       5.70606061       0.00000000       0.00000000      -0.78890598
2
Properties=species:S:1:pos:R:3:forces:R:3 energy=-2.9246794375180007 pbc="F F F"
Ba       0.00000000       0.00000000       0.00000000       0.00000000       0.00000000       0.93143487
Ba       0.00000000       0.00000000       5.76484848       0.00000000       0.00000000      -0.93143487
2
Properties=species:S:1:pos:R:3:forces:R:3 energy=-2.8705764470941992 pbc="F F F"
Ba       0.00000000       0.00000000       0.00000000       0.00000000       0.00000000       0.85879844
Ba       0.00000000       0.00000000       5.82363636       0.00000000       0.00000000      -0.85879844
2
Properties=species:S:1:pos:R:3:forces:R:3 energy=-2.8292136916280923 pbc="F F F"
Ba       0.00000000       0.00000000       0.00000000       0.00000000       0.00000000       0.52696079
Ba       0.00000000       0.00000000       5.88242424       0.00000000       0.00000000      -0.52696079
2
Properties=species:S:1:pos:R:3:forces:R:3 energy=-2.8089366764131833 pbc="F F F"
Ba       0.00000000       0.00000000       0.00000000       0.00000000       0.00000000       0.17970107
Ba       0.00000000       0.00000000       5.94121212       0.00000000       0.00000000      -0.17970107
2
Properties=species:S:1:pos:R:3:forces:R:3 energy=-2.8038230716583383 pbc="F F F"
Ba       0.00000000       0.00000000       0.00000000       0.00000000       0.00000000       0.04043269
Ba       0.00000000       0.00000000       6.00000000       0.00000000       0.00000000      -0.04043269
