2
Properties=species:S:1:pos:R:3:forces:R:3 energy=17386.569914369942 pbc="F F F"
Bi       0.00000000       0.00000000       0.00000000       0.00000000       0.00000000 -307246.50000000
Bi       0.00000000       0.00000000       0.18000000       0.00000000       0.00000000  307246.50000000
2
Properties=species:S:1:pos:R:3:forces:R:3 energy=6709.488371401191 pbc="F F F"
Bi       0.00000000       0.00000000       0.00000000       0.00000000       0.00000000 -100207.55468750
Bi       0.00000000       0.00000000       0.23878788       0.00000000       0.00000000  100207.55468750
2
Properties=species:S:1:pos:R:3:forces:R:3 energy=2957.922453435609 pbc="F F F"
Bi       0.00000000       0.00000000       0.00000000       0.00000000       0.00000000  -38451.20703125
Bi       0.00000000       0.00000000       0.29757576       0.00000000       0.00000000   38451.20703125
2
Properties=species:S:1:pos:R:3:forces:R:3 energy=1448.6186204277967 pbc="F F F"
Bi       0.00000000       0.00000000       0.00000000       0.00000000       0.00000000  -16378.24511719
Bi       0.00000000       0.00000000       0.35636364       0.00000000       0.00000000   16378.24511719
2
Properties=species:S:1:pos:R:3:forces:R:3 energy=781.348539867726 pbc="F F F"
Bi       0.00000000       0.00000000       0.00000000       0.00000000       0.00000000   -7594.46679688
Bi       0.00000000       0.00000000       0.41515152       0.00000000       0.00000000    7594.46679688
2
Properties=species:S:1:pos:R:3:forces:R:3 energy=459.48293928812416 pbc="F F F"
Bi       0.00000000       0.00000000       0.00000000       0.00000000       0.00000000   -3871.71752930
Bi       0.00000000       0.00000000       0.47393939       0.00000000       0.00000000    3871.71752930
2
Properties=species:S:1:pos:R:3:forces:R:3 energy=286.1273179692405 pbc="F F F"
Bi       0.00000000       0.00000000       0.00000000       0.00000000       0.00000000   -2169.47290039
Bi       0.00000000       0.00000000       0.53272727       0.00000000       0.00000000    2169.47290039
2
Properties=species:S:1:pos:R:3:forces:R:3 energy=199.45063647602836 pbc="F F F"
Bi       0.00000000       0.00000000       0.00000000       0.00000000       0.00000000   -1060.45849609
Bi       0.00000000       0.00000000       0.59151515       0.00000000       0.00000000    1060.45849609
2
Properties=species:S:1:pos:R:3:forces:R:3 energy=148.6448809051435 pbc="F F F"
Bi       0.00000000       0.00000000       0.00000000       0.00000000       0.00000000    -711.71948242
Bi       0.00000000       0.00000000       0.65030303       0.00000000       0.00000000     711.71948242
2
Properties=species:S:1:pos:R:3:forces:R:3 energy=112.00301239303046 pbc="F F F"
Bi       0.00000000       0.00000000       0.00000000       0.00000000       0.00000000    -520.01153564
Bi       0.00000000       0.00000000       0.70909091       0.00000000       0.00000000     520.01153564
2
Properties=species:S:1:pos:R:3:forces:R:3 energy=93.17033275536909 pbc="F F F"
Bi       0.00000000       0.00000000       0.00000000       0.00000000       0.00000000    -134.89430237
Bi       0.00000000       0.00000000       0.76787879       0.00000000       0.00000000     134.89430237
2
Properties=species:S:1:pos:R:3:forces:R:3 energy=90.24193478777161 pbc="F F F"
Bi       0.00000000       0.00000000       0.00000000       0.00000000       0.00000000     -14.06295681
Bi       0.00000000       0.00000000       0.82666667       0.00000000       0.00000000      14.06295681
2
Properties=species:S:1:pos:R:3:forces:R:3 energy=91.58560873141296 pbc="F F F"
Bi       0.00000000       0.00000000       0.00000000       0.00000000       0.00000000      61.16832733
Bi       0.00000000       0.00000000       0.88545455       0.00000000       0.00000000     -61.16832733
2
Properties=species:S:1:pos:R:3:forces:R:3 energy=96.56819115948727 pbc="F F F"
Bi       0.00000000       0.00000000       0.00000000       0.00000000       0.00000000      95.45491028
Bi       0.00000000       0.00000000       0.94424242       0.00000000       0.00000000     -95.45491028
2
Properties=species:S:1:pos:R:3:forces:R:3 energy=97.07914742936836 pbc="F F F"
Bi       0.00000000       0.00000000       0.00000000       0.00000000       0.00000000       5.38692045
Bi       0.00000000       0.00000000       1.00303030       0.00000000       0.00000000      -5.38692045
2
Properties=species:S:1:pos:R:3:forces:R:3 energy=97.41953348727321 pbc="F F F"
Bi       0.00000000       0.00000000       0.00000000       0.00000000       0.00000000       3.05180454
Bi       0.00000000       0.00000000       1.06181818       0.00000000       0.00000000      -3.05180454
2
Properties=species:S:1:pos:R:3:forces:R:3 energy=97.02789460143433 pbc="F F F"
Bi       0.00000000       0.00000000       0.00000000       0.00000000       0.00000000     -20.65827560
Bi       0.00000000       0.00000000       1.12060606       0.00000000       0.00000000      20.65827560
2
Properties=species:S:1:pos:R:3:forces:R:3 energy=94.4892299101773 pbc="F F F"
Bi       0.00000000       0.00000000       0.00000000       0.00000000       0.00000000     -69.12529755
Bi       0.00000000       0.00000000       1.17939394       0.00000000       0.00000000      69.12529755
2
Properties=species:S:1:pos:R:3:forces:R:3 energy=88.71651097027281 pbc="F F F"
Bi       0.00000000       0.00000000       0.00000000       0.00000000       0.00000000    -126.75629425
Bi       0.00000000       0.00000000       1.23818182       0.00000000       0.00000000     126.75629425
2
Properties=species:S:1:pos:R:3:forces:R:3 energy=79.77384002426449 pbc="F F F"
Bi       0.00000000       0.00000000       0.00000000       0.00000000       0.00000000    -175.98725891
Bi       0.00000000       0.00000000       1.29696970       0.00000000       0.00000000     175.98725891
2
Properties=species:S:1:pos:R:3:forces:R:3 energy=68.2575153786248 pbc="F F F"
Bi       0.00000000       0.00000000       0.00000000       0.00000000       0.00000000    -209.90197754
Bi       0.00000000       0.00000000       1.35575758       0.00000000       0.00000000     209.90197754
2
Properties=species:S:1:pos:R:3:forces:R:3 energy=56.41105976926356 pbc="F F F"
Bi       0.00000000       0.00000000       0.00000000       0.00000000       0.00000000    -184.00056458
Bi       0.00000000       0.00000000       1.41454545       0.00000000       0.00000000     184.00056458
2
Properties=species:S:1:pos:R:3:forces:R:3 energy=46.6683150250481 pbc="F F F"
Bi       0.00000000       0.00000000       0.00000000       0.00000000       0.00000000    -151.25947571
Bi       0.00000000       0.00000000       1.47333333       0.00000000       0.00000000     151.25947571
2
Properties=species:S:1:pos:R:3:forces:R:3 energy=38.34766734106869 pbc="F F F"
Bi       0.00000000       0.00000000       0.00000000       0.00000000       0.00000000    -132.65657043
Bi       0.00000000       0.00000000       1.53212121       0.00000000       0.00000000     132.65657043
2
Properties=species:S:1:pos:R:3:forces:R:3 energy=31.031726061855654 pbc="F F F"
Bi       0.00000000       0.00000000       0.00000000       0.00000000       0.00000000    -116.51725769
Bi       0.00000000       0.00000000       1.59090909       0.00000000       0.00000000     116.51725769
2
Properties=species:S:1:pos:R:3:forces:R:3 energy=24.57952684091127 pbc="F F F"
Bi       0.00000000       0.00000000       0.00000000       0.00000000       0.00000000    -103.66606903
Bi       0.00000000       0.00000000       1.64969697       0.00000000       0.00000000     103.66606903
2
Properties=species:S:1:pos:R:3:forces:R:3 energy=18.83478553602949 pbc="F F F"
Bi       0.00000000       0.00000000       0.00000000       0.00000000       0.00000000     -91.26663971
Bi       0.00000000       0.00000000       1.70848485       0.00000000       0.00000000      91.26663971
2
Properties=species:S:1:pos:R:3:forces:R:3 energy=13.897882322308977 pbc="F F F"
Bi       0.00000000       0.00000000       0.00000000       0.00000000       0.00000000     -76.62639618
Bi       0.00000000       0.00000000       1.76727273       0.00000000       0.00000000      76.62639618
2
Properties=species:S:1:pos:R:3:forces:R:3 energy=9.799388421223115 pbc="F F F"
Bi       0.00000000       0.00000000       0.00000000       0.00000000       0.00000000     -63.16072845
Bi       0.00000000       0.00000000       1.82606061       0.00000000       0.00000000      63.16072845
2
Properties=species:S:1:pos:R:3:forces:R:3 energy=6.43238244188703 pbc="F F F"
Bi       0.00000000       0.00000000       0.00000000       0.00000000       0.00000000     -51.66296768
Bi       0.00000000       0.00000000       1.88484848       0.00000000       0.00000000      51.66296768
2
Properties=species:S:1:pos:R:3:forces:R:3 energy=3.6986109867949946 pbc="F F F"
Bi       0.00000000       0.00000000       0.00000000       0.00000000       0.00000000     -41.54139709
Bi       0.00000000       0.00000000       1.94363636       0.00000000       0.00000000      41.54139709
2
Properties=species:S:1:pos:R:3:forces:R:3 energy=1.523513746325905 pbc="F F F"
Bi       0.00000000       0.00000000       0.00000000       0.00000000       0.00000000     -32.68907166
Bi       0.00000000       0.00000000       2.00242424       0.00000000       0.00000000      32.68907166
2
Properties=species:S:1:pos:R:3:forces:R:3 energy=-0.17494968295692376 pbc="F F F"
Bi       0.00000000       0.00000000       0.00000000       0.00000000       0.00000000     -25.36526680
Bi       0.00000000       0.00000000       2.06121212       0.00000000       0.00000000      25.36526680
2
Properties=species:S:1:pos:R:3:forces:R:3 energy=-1.4904805714604785 pbc="F F F"
Bi       0.00000000       0.00000000       0.00000000       0.00000000       0.00000000     -19.64522552
Bi       0.00000000       0.00000000       2.12000000       0.00000000       0.00000000      19.64522552
2
Properties=species:S:1:pos:R:3:forces:R:3 energy=-2.5115943534133525 pbc="F F F"
Bi       0.00000000       0.00000000       0.00000000       0.00000000       0.00000000     -15.29110336
Bi       0.00000000       0.00000000       2.17878788       0.00000000       0.00000000      15.29110336
2
Properties=species:S:1:pos:R:3:forces:R:3 energy=-3.3078938173900645 pbc="F F F"
Bi       0.00000000       0.00000000       0.00000000       0.00000000       0.00000000     -11.93628883
Bi       0.00000000       0.00000000       2.23757576       0.00000000       0.00000000      11.93628883
2
Properties=species:S:1:pos:R:3:forces:R:3 energy=-3.9281455863965578 pbc="F F F"
Bi       0.00000000       0.00000000       0.00000000       0.00000000       0.00000000      -9.25539970
Bi       0.00000000       0.00000000       2.29636364       0.00000000       0.00000000       9.25539970
2
Properties=species:S:1:pos:R:3:forces:R:3 energy=-4.404794006129436 pbc="F F F"
Bi       0.00000000       0.00000000       0.00000000       0.00000000       0.00000000      -7.02100420
Bi       0.00000000       0.00000000       2.35515152       0.00000000       0.00000000       7.02100420
2
Properties=species:S:1:pos:R:3:forces:R:3 energy=-4.7596696790429975 pbc="F F F"
Bi       0.00000000       0.00000000       0.00000000       0.00000000       0.00000000      -5.09614134
Bi       0.00000000       0.00000000       2.41393939       0.00000000       0.00000000       5.09614134
2
Properties=species:S:1:pos:R:3:forces:R:3 energy=-5.008649844986218 pbc="F F F"
Bi       0.00000000       0.00000000       0.00000000       0.00000000       0.00000000      -3.41119695
Bi       0.00000000       0.00000000       2.47272727       0.00000000       0.00000000       3.41119695
2
Properties=species:S:1:pos:R:3:forces:R:3 energy=-5.16494068027778 pbc="F F F"
Bi       0.00000000       0.00000000       0.00000000       0.00000000       0.00000000      -1.94131100
Bi       0.00000000       0.00000000       2.53151515       0.00000000       0.00000000       1.94131100
2
Properties=species:S:1:pos:R:3:forces:R:3 energy=-5.241115096147694 pbc="F F F"
Bi       0.00000000       0.00000000       0.00000000       0.00000000       0.00000000      -0.68665504
Bi       0.00000000       0.00000000       2.59030303       0.00000000       0.00000000       0.68665504
2
Properties=species:S:1:pos:R:3:forces:R:3 energy=-5.250043016354732 pbc="F F F"
Bi       0.00000000       0.00000000       0.00000000       0.00000000       0.00000000       0.34530827
Bi       0.00000000       0.00000000       2.64909091       0.00000000       0.00000000      -0.34530827
2
Properties=species:S:1:pos:R:3:forces:R:3 energy=-5.204906178145265 pbc="F F F"
Bi       0.00000000       0.00000000       0.00000000       0.00000000       0.00000000       1.15360963
Bi       0.00000000       0.00000000       2.70787879       0.00000000       0.00000000      -1.15360963
2
Properties=species:S:1:pos:R:3:forces:R:3 energy=-5.11855967580883 pbc="F F F"
Bi       0.00000000       0.00000000       0.00000000       0.00000000       0.00000000       1.75039220
Bi       0.00000000       0.00000000       2.76666667       0.00000000       0.00000000      -1.75039220
2
Properties=species:S:1:pos:R:3:forces:R:3 energy=-5.002788568380665 pbc="F F F"
Bi       0.00000000       0.00000000       0.00000000       0.00000000       0.00000000       2.15922308
Bi       0.00000000       0.00000000       2.82545455       0.00000000       0.00000000      -2.15922308
2
Properties=species:S:1:pos:R:3:forces:R:3 energy=-4.867810039473794 pbc="F F F"
Bi       0.00000000       0.00000000       0.00000000       0.00000000       0.00000000       2.40871811
Bi       0.00000000       0.00000000       2.88424242       0.00000000       0.00000000      -2.40871811
2
Properties=species:S:1:pos:R:3:forces:R:3 energy=-4.722145216782491 pbc="F F F"
Bi       0.00000000       0.00000000       0.00000000       0.00000000       0.00000000       2.52735114
Bi       0.00000000       0.00000000       2.94303030       0.00000000       0.00000000      -2.52735114
2
Properties=species:S:1:pos:R:3:forces:R:3 energy=-4.572685385922999 pbc="F F F"
Bi       0.00000000       0.00000000       0.00000000       0.00000000       0.00000000       2.54231381
Bi       0.00000000       0.00000000       3.00181818       0.00000000       0.00000000      -2.54231381
2
Properties=species:S:1:pos:R:3:forces:R:3 energy=-4.424738783831484 pbc="F F F"
Bi       0.00000000       0.00000000       0.00000000       0.00000000       0.00000000       2.48030925
Bi       0.00000000       0.00000000       3.06060606       0.00000000       0.00000000      -2.48030925
2
Properties=species:S:1:pos:R:3:forces:R:3 energy=-4.282066058943956 pbc="F F F"
Bi       0.00000000       0.00000000       0.00000000       0.00000000       0.00000000       2.36700773
Bi       0.00000000       0.00000000       3.11939394       0.00000000       0.00000000      -2.36700773
2
Properties=species:S:1:pos:R:3:forces:R:3 energy=-4.147001429016141 pbc="F F F"
Bi       0.00000000       0.00000000       0.00000000       0.00000000       0.00000000       2.22465348
Bi       0.00000000       0.00000000       3.17818182       0.00000000       0.00000000      -2.22465348
2
Properties=species:S:1:pos:R:3:forces:R:3 energy=-4.020736517946021 pbc="F F F"
Bi       0.00000000       0.00000000       0.00000000       0.00000000       0.00000000       2.06999445
Bi       0.00000000       0.00000000       3.23696970       0.00000000       0.00000000      -2.06999445
2
Properties=species:S:1:pos:R:3:forces:R:3 energy=-3.9036452956266334 pbc="F F F"
Bi       0.00000000       0.00000000       0.00000000       0.00000000       0.00000000       1.91395795
Bi       0.00000000       0.00000000       3.29575758       0.00000000       0.00000000      -1.91395795
2
Properties=species:S:1:pos:R:3:forces:R:3 energy=-3.795605472366502 pbc="F F F"
Bi       0.00000000       0.00000000       0.00000000       0.00000000       0.00000000       1.76272070
Bi       0.00000000       0.00000000       3.35454545       0.00000000       0.00000000      -1.76272070
2
Properties=species:S:1:pos:R:3:forces:R:3 energy=-3.6962405957897966 pbc="F F F"
Bi       0.00000000       0.00000000       0.00000000       0.00000000       0.00000000       1.61910272
Bi       0.00000000       0.00000000       3.41333333       0.00000000       0.00000000      -1.61910272
2
Properties=species:S:1:pos:R:3:forces:R:3 energy=-3.6050733423031773 pbc="F F F"
Bi       0.00000000       0.00000000       0.00000000       0.00000000       0.00000000       1.48387396
Bi       0.00000000       0.00000000       3.47212121       0.00000000       0.00000000      -1.48387396
2
Properties=species:S:1:pos:R:3:forces:R:3 energy=-3.5216111831846986 pbc="F F F"
Bi       0.00000000       0.00000000       0.00000000       0.00000000       0.00000000       1.35695696
Bi       0.00000000       0.00000000       3.53090909       0.00000000       0.00000000      -1.35695696
2
Properties=species:S:1:pos:R:3:forces:R:3 energy=-3.4453669433610212 pbc="F F F"
Bi       0.00000000       0.00000000       0.00000000       0.00000000       0.00000000       1.23826849
Bi       0.00000000       0.00000000       3.58969697       0.00000000       0.00000000      -1.23826849
2
Properties=species:S:1:pos:R:3:forces:R:3 energy=-3.37585651087948 pbc="F F F"
Bi       0.00000000       0.00000000       0.00000000       0.00000000       0.00000000       1.12792933
Bi       0.00000000       0.00000000       3.64848485       0.00000000       0.00000000      -1.12792933
2
Properties=species:S:1:pos:R:3:forces:R:3 energy=-3.3125846337412 pbc="F F F"
Bi       0.00000000       0.00000000       0.00000000       0.00000000       0.00000000       1.02604163
Bi       0.00000000       0.00000000       3.70727273       0.00000000       0.00000000      -1.02604163
2
Properties=species:S:1:pos:R:3:forces:R:3 energy=-3.2550522703382585 pbc="F F F"
Bi       0.00000000       0.00000000       0.00000000       0.00000000       0.00000000       0.93263316
Bi       0.00000000       0.00000000       3.76606061       0.00000000       0.00000000      -0.93263316
2
Properties=species:S:1:pos:R:3:forces:R:3 energy=-3.202761253512317 pbc="F F F"
Bi       0.00000000       0.00000000       0.00000000       0.00000000       0.00000000       0.84784043
Bi       0.00000000       0.00000000       3.82484848       0.00000000       0.00000000      -0.84784043
2
Properties=species:S:1:pos:R:3:forces:R:3 energy=-3.155194026094352 pbc="F F F"
Bi       0.00000000       0.00000000       0.00000000       0.00000000       0.00000000       0.77187455
Bi       0.00000000       0.00000000       3.88363636       0.00000000       0.00000000      -0.77187455
2
Properties=species:S:1:pos:R:3:forces:R:3 energy=-3.111831705966431 pbc="F F F"
Bi       0.00000000       0.00000000       0.00000000       0.00000000       0.00000000       0.70481658
Bi       0.00000000       0.00000000       3.94242424       0.00000000       0.00000000      -0.70481658
2
Properties=species:S:1:pos:R:3:forces:R:3 energy=-3.072156613598754 pbc="F F F"
Bi       0.00000000       0.00000000       0.00000000       0.00000000       0.00000000       0.64635754
Bi       0.00000000       0.00000000       4.00121212       0.00000000       0.00000000      -0.64635754
2
Properties=species:S:1:pos:R:3:forces:R:3 energy=-3.03568268208167 pbc="F F F"
Bi       0.00000000       0.00000000       0.00000000       0.00000000       0.00000000       0.59571755
Bi       0.00000000       0.00000000       4.06000000       0.00000000       0.00000000      -0.59571755
2
Properties=species:S:1:pos:R:3:forces:R:3 energy=-3.001984434822542 pbc="F F F"
Bi       0.00000000       0.00000000       0.00000000       0.00000000       0.00000000       0.55170310
Bi       0.00000000       0.00000000       4.11878788       0.00000000       0.00000000      -0.55170310
2
Properties=species:S:1:pos:R:3:forces:R:3 energy=-2.970713475113639 pbc="F F F"
Bi       0.00000000       0.00000000       0.00000000       0.00000000       0.00000000       0.51289326
Bi       0.00000000       0.00000000       4.17757576       0.00000000       0.00000000      -0.51289326
2
Properties=species:S:1:pos:R:3:forces:R:3 energy=-2.941605916625937 pbc="F F F"
Bi       0.00000000       0.00000000       0.00000000       0.00000000       0.00000000       0.47788683
Bi       0.00000000       0.00000000       4.23636364       0.00000000       0.00000000      -0.47788683
2
Properties=species:S:1:pos:R:3:forces:R:3 energy=-2.91447348739795 pbc="F F F"
Bi       0.00000000       0.00000000       0.00000000       0.00000000       0.00000000       0.44552457
Bi       0.00000000       0.00000000       4.29515152       0.00000000       0.00000000      -0.44552457
2
Properties=species:S:1:pos:R:3:forces:R:3 energy=-2.8891872975334993 pbc="F F F"
Bi       0.00000000       0.00000000       0.00000000       0.00000000       0.00000000       0.41502431
Bi       0.00000000       0.00000000       4.35393939       0.00000000       0.00000000      -0.41502431
2
Properties=species:S:1:pos:R:3:forces:R:3 energy=-2.865649327174707 pbc="F F F"
Bi       0.00000000       0.00000000       0.00000000       0.00000000       0.00000000       0.38596457
Bi       0.00000000       0.00000000       4.41272727       0.00000000       0.00000000      -0.38596457
2
Properties=species:S:1:pos:R:3:forces:R:3 energy=-2.8437815986315327 pbc="F F F"
Bi       0.00000000       0.00000000       0.00000000       0.00000000       0.00000000       0.35819265
Bi       0.00000000       0.00000000       4.47151515       0.00000000       0.00000000      -0.35819265
2
Properties=species:S:1:pos:R:3:forces:R:3 energy=-2.8235094744099474 pbc="F F F"
Bi       0.00000000       0.00000000       0.00000000       0.00000000       0.00000000       0.33166915
Bi       0.00000000       0.00000000       4.53030303       0.00000000       0.00000000      -0.33166915
2
Properties=species:S:1:pos:R:3:forces:R:3 energy=-2.804761835441892 pbc="F F F"
Bi       0.00000000       0.00000000       0.00000000       0.00000000       0.00000000       0.30634218
Bi       0.00000000       0.00000000       4.58909091       0.00000000       0.00000000      -0.30634218
2
Properties=species:S:1:pos:R:3:forces:R:3 energy=-2.7874704450250944 pbc="F F F"
Bi       0.00000000       0.00000000       0.00000000       0.00000000       0.00000000       0.28209096
Bi       0.00000000       0.00000000       4.64787879       0.00000000       0.00000000      -0.28209096
2
Properties=species:S:1:pos:R:3:forces:R:3 energy=-2.771577213086134 pbc="F F F"
Bi       0.00000000       0.00000000       0.00000000       0.00000000       0.00000000       0.25872394
Bi       0.00000000       0.00000000       4.70666667       0.00000000       0.00000000      -0.25872394
2
Properties=species:S:1:pos:R:3:forces:R:3 energy=-2.7570377217739743 pbc="F F F"
Bi       0.00000000       0.00000000       0.00000000       0.00000000       0.00000000       0.23601776
Bi       0.00000000       0.00000000       4.76545455       0.00000000       0.00000000      -0.23601776
2
Properties=species:S:1:pos:R:3:forces:R:3 energy=-2.743818583848662 pbc="F F F"
Bi       0.00000000       0.00000000       0.00000000       0.00000000       0.00000000       0.21374246
Bi       0.00000000       0.00000000       4.82424242       0.00000000       0.00000000      -0.21374246
2
Properties=species:S:1:pos:R:3:forces:R:3 energy=-2.731903320782427 pbc="F F F"
Bi       0.00000000       0.00000000       0.00000000       0.00000000       0.00000000       0.19166923
Bi       0.00000000       0.00000000       4.88303030       0.00000000       0.00000000      -0.19166923
2
Properties=species:S:1:pos:R:3:forces:R:3 energy=-2.7212834240628343 pbc="F F F"
Bi       0.00000000       0.00000000       0.00000000       0.00000000       0.00000000       0.16958983
Bi       0.00000000       0.00000000       4.94181818       0.00000000       0.00000000      -0.16958983
2
Properties=species:S:1:pos:R:3:forces:R:3 energy=-2.711964805165713 pbc="F F F"
Bi       0.00000000       0.00000000       0.00000000       0.00000000       0.00000000       0.14740911
Bi       0.00000000       0.00000000       5.00060606       0.00000000       0.00000000      -0.14740911
2
Properties=species:S:1:pos:R:3:forces:R:3 energy=-2.703949378719851 pbc="F F F"
Bi       0.00000000       0.00000000       0.00000000       0.00000000       0.00000000       0.12535322
Bi       0.00000000       0.00000000       5.05939394       0.00000000       0.00000000      -0.12535322
2
Properties=species:S:1:pos:R:3:forces:R:3 energy=-2.697208256671919 pbc="F F F"
Bi       0.00000000       0.00000000       0.00000000       0.00000000       0.00000000       0.10425106
Bi       0.00000000       0.00000000       5.11818182       0.00000000       0.00000000      -0.10425106
2
Properties=species:S:1:pos:R:3:forces:R:3 energy=-2.691643359727412 pbc="F F F"
Bi       0.00000000       0.00000000       0.00000000       0.00000000       0.00000000       0.08566384
Bi       0.00000000       0.00000000       5.17696970       0.00000000       0.00000000      -0.08566384
2
Properties=species:S:1:pos:R:3:forces:R:3 energy=-2.687050650204312 pbc="F F F"
Bi       0.00000000       0.00000000       0.00000000       0.00000000       0.00000000       0.07143304
Bi       0.00000000       0.00000000       5.23575758       0.00000000       0.00000000      -0.07143304
2
Properties=species:S:1:pos:R:3:forces:R:3 energy=-2.6831442392360674 pbc="F F F"
Bi       0.00000000       0.00000000       0.00000000       0.00000000       0.00000000       0.06220575
Bi       0.00000000       0.00000000       5.29454545       0.00000000       0.00000000      -0.06220575
2
Properties=species:S:1:pos:R:3:forces:R:3 energy=-2.679689132067176 pbc="F F F"
Bi       0.00000000       0.00000000       0.00000000       0.00000000       0.00000000       0.05526461
Bi       0.00000000       0.00000000       5.35333333       0.00000000       0.00000000      -0.05526461
2
Properties=species:S:1:pos:R:3:forces:R:3 energy=-2.676718190544077 pbc="F F F"
Bi       0.00000000       0.00000000       0.00000000       0.00000000       0.00000000       0.04481491
Bi       0.00000000       0.00000000       5.41212121       0.00000000       0.00000000      -0.04481491
2
Properties=species:S:1:pos:R:3:forces:R:3 energy=-2.6745025961378315 pbc="F F F"
Bi       0.00000000       0.00000000       0.00000000       0.00000000       0.00000000       0.03071186
Bi       0.00000000       0.00000000       5.47090909       0.00000000       0.00000000      -0.03071186
2
Properties=species:S:1:pos:R:3:forces:R:3 energy=-2.6729574534194898 pbc="F F F"
Bi       0.00000000       0.00000000       0.00000000       0.00000000       0.00000000       0.02381329
Bi       0.00000000       0.00000000       5.52969697       0.00000000       0.00000000      -0.02381329
2
Properties=species:S:1:pos:R:3:forces:R:3 energy=-2.6715152246406313 pbc="F F F"
Bi       0.00000000       0.00000000       0.00000000       0.00000000       0.00000000       0.02602647
Bi       0.00000000       0.00000000       5.58848485       0.00000000       0.00000000      -0.02602647
2
Properties=species:S:1:pos:R:3:forces:R:3 energy=-2.669900405549843 pbc="F F F"
Bi       0.00000000       0.00000000       0.00000000       0.00000000       0.00000000       0.02838139
Bi       0.00000000       0.00000000       5.64727273       0.00000000       0.00000000      -0.02838139
2
Properties=species:S:1:pos:R:3:forces:R:3 energy=-2.6682353452279743 pbc="F F F"
Bi       0.00000000       0.00000000       0.00000000       0.00000000       0.00000000       0.02819607
Bi       0.00000000       0.00000000       5.70606061       0.00000000       0.00000000      -0.02819607
2
Properties=species:S:1:pos:R:3:forces:R:3 energy=-2.6665174511649647 pbc="F F F"
Bi       0.00000000       0.00000000       0.00000000       0.00000000       0.00000000       0.03113000
Bi       0.00000000       0.00000000       5.76484848       0.00000000       0.00000000      -0.03113000
2
Properties=species:S:1:pos:R:3:forces:R:3 energy=-2.6645386671365525 pbc="F F F"
Bi       0.00000000       0.00000000       0.00000000       0.00000000       0.00000000       0.03535276
Bi       0.00000000       0.00000000       5.82363636       0.00000000       0.00000000      -0.03535276
2
Properties=species:S:1:pos:R:3:forces:R:3 energy=-2.6625887715826693 pbc="F F F"
Bi       0.00000000       0.00000000       0.00000000       0.00000000       0.00000000       0.02900509
Bi       0.00000000       0.00000000       5.88242424       0.00000000       0.00000000      -0.02900509
2
Properties=species:S:1:pos:R:3:forces:R:3 energy=-2.661256839871401 pbc="F F F"
Bi       0.00000000       0.00000000       0.00000000       0.00000000       0.00000000       0.01631052
Bi       0.00000000       0.00000000       5.94121212       0.00000000       0.00000000      -0.01631052
2
Properties=species:S:1:pos:R:3:forces:R:3 energy=-2.660531477924037 pbc="F F F"
Bi       0.00000000       0.00000000       0.00000000       0.00000000       0.00000000       0.01019728
Bi       0.00000000       0.00000000       6.00000000       0.00000000       0.00000000      -0.01019728
