2
Properties=species:S:1:pos:R:3:forces:R:3 energy=427.465771066722 pbc="F F F"
C        0.00000000       0.00000000       0.00000000       0.00000000       0.00000000   -4761.30615234
C        0.00000000       0.00000000       0.18000000       0.00000000       0.00000000    4761.30615234
2
Properties=species:S:1:pos:R:3:forces:R:3 energy=243.84515034076688 pbc="F F F"
C        0.00000000       0.00000000       0.00000000       0.00000000       0.00000000   -1980.68298340
C        0.00000000       0.00000000       0.23878788       0.00000000       0.00000000    1980.68298340
2
Properties=species:S:1:pos:R:3:forces:R:3 energy=161.76408039764564 pbc="F F F"
C        0.00000000       0.00000000       0.00000000       0.00000000       0.00000000    -966.52343750
C        0.00000000       0.00000000       0.29757576       0.00000000       0.00000000     966.52343750
2
Properties=species:S:1:pos:R:3:forces:R:3 energy=118.69446218046754 pbc="F F F"
C        0.00000000       0.00000000       0.00000000       0.00000000       0.00000000    -561.73815918
C        0.00000000       0.00000000       0.35636364       0.00000000       0.00000000     561.73815918
2
Properties=species:S:1:pos:R:3:forces:R:3 energy=90.72816886451353 pbc="F F F"
C        0.00000000       0.00000000       0.00000000       0.00000000       0.00000000    -410.92425537
C        0.00000000       0.00000000       0.41515152       0.00000000       0.00000000     410.92425537
2
Properties=species:S:1:pos:R:3:forces:R:3 energy=70.18941157830865 pbc="F F F"
C        0.00000000       0.00000000       0.00000000       0.00000000       0.00000000    -285.88525391
C        0.00000000       0.00000000       0.47393939       0.00000000       0.00000000     285.88525391
2
Properties=species:S:1:pos:R:3:forces:R:3 energy=54.41993761845973 pbc="F F F"
C        0.00000000       0.00000000       0.00000000       0.00000000       0.00000000    -270.04589844
C        0.00000000       0.00000000       0.53272727       0.00000000       0.00000000     270.04589844
2
Properties=species:S:1:pos:R:3:forces:R:3 energy=38.82172072992283 pbc="F F F"
C        0.00000000       0.00000000       0.00000000       0.00000000       0.00000000    -248.18185425
C        0.00000000       0.00000000       0.59151515       0.00000000       0.00000000     248.18185425
2
Properties=species:S:1:pos:R:3:forces:R:3 energy=26.442368361499458 pbc="F F F"
C        0.00000000       0.00000000       0.00000000       0.00000000       0.00000000    -166.88296509
C        0.00000000       0.00000000       0.65030303       0.00000000       0.00000000     166.88296509
2
Properties=species:S:1:pos:R:3:forces:R:3 energy=18.653392007386238 pbc="F F F"
C        0.00000000       0.00000000       0.00000000       0.00000000       0.00000000    -110.10785675
C        0.00000000       0.00000000       0.70909091       0.00000000       0.00000000     110.10785675
2
Properties=species:S:1:pos:R:3:forces:R:3 energy=11.794870072150161 pbc="F F F"
C        0.00000000       0.00000000       0.00000000       0.00000000       0.00000000    -124.28337860
C        0.00000000       0.00000000       0.76787879       0.00000000       0.00000000     124.28337860
2
Properties=species:S:1:pos:R:3:forces:R:3 energy=4.921520636725793 pbc="F F F"
C        0.00000000       0.00000000       0.00000000       0.00000000       0.00000000    -105.08192444
C        0.00000000       0.00000000       0.82666667       0.00000000       0.00000000     105.08192444
2
Properties=species:S:1:pos:R:3:forces:R:3 energy=-0.32280232004235954 pbc="F F F"
C        0.00000000       0.00000000       0.00000000       0.00000000       0.00000000     -73.74912262
C        0.00000000       0.00000000       0.88545455       0.00000000       0.00000000      73.74912262
2
Properties=species:S:1:pos:R:3:forces:R:3 energy=-3.972330119531743 pbc="F F F"
C        0.00000000       0.00000000       0.00000000       0.00000000       0.00000000     -52.26007080
C        0.00000000       0.00000000       0.94424242       0.00000000       0.00000000      52.26007080
2
Properties=species:S:1:pos:R:3:forces:R:3 energy=-6.608517633659428 pbc="F F F"
C        0.00000000       0.00000000       0.00000000       0.00000000       0.00000000     -38.11013794
C        0.00000000       0.00000000       1.00303030       0.00000000       0.00000000      38.11013794
2
Properties=species:S:1:pos:R:3:forces:R:3 energy=-8.501339183676322 pbc="F F F"
C        0.00000000       0.00000000       0.00000000       0.00000000       0.00000000     -26.56430817
C        0.00000000       0.00000000       1.06181818       0.00000000       0.00000000      26.56430817
2
Properties=species:S:1:pos:R:3:forces:R:3 energy=-9.765819162002598 pbc="F F F"
C        0.00000000       0.00000000       0.00000000       0.00000000       0.00000000     -16.77859116
C        0.00000000       0.00000000       1.12060606       0.00000000       0.00000000      16.77859116
2
Properties=species:S:1:pos:R:3:forces:R:3 energy=-10.51456054553912 pbc="F F F"
C        0.00000000       0.00000000       0.00000000       0.00000000       0.00000000      -9.03995037
C        0.00000000       0.00000000       1.17939394       0.00000000       0.00000000       9.03995037
2
Properties=species:S:1:pos:R:3:forces:R:3 energy=-10.86749814665999 pbc="F F F"
C        0.00000000       0.00000000       0.00000000       0.00000000       0.00000000      -3.27468348
C        0.00000000       0.00000000       1.23818182       0.00000000       0.00000000       3.27468348
2
Properties=species:S:1:pos:R:3:forces:R:3 energy=-10.93211559794476 pbc="F F F"
C        0.00000000       0.00000000       0.00000000       0.00000000       0.00000000       0.83507812
C        0.00000000       0.00000000       1.29696970       0.00000000       0.00000000      -0.83507812
2
Properties=species:S:1:pos:R:3:forces:R:3 energy=-10.79317053636946 pbc="F F F"
C        0.00000000       0.00000000       0.00000000       0.00000000       0.00000000       3.72519064
C        0.00000000       0.00000000       1.35575758       0.00000000       0.00000000      -3.72519064
2
Properties=species:S:1:pos:R:3:forces:R:3 energy=-10.51047928597777 pbc="F F F"
C        0.00000000       0.00000000       0.00000000       0.00000000       0.00000000       5.77407551
C        0.00000000       0.00000000       1.41454545       0.00000000       0.00000000      -5.77407551
2
Properties=species:S:1:pos:R:3:forces:R:3 energy=-10.126616116143575 pbc="F F F"
C        0.00000000       0.00000000       0.00000000       0.00000000       0.00000000       7.18940306
C        0.00000000       0.00000000       1.47333333       0.00000000       0.00000000      -7.18940306
2
Properties=species:S:1:pos:R:3:forces:R:3 energy=-9.675820757675098 pbc="F F F"
C        0.00000000       0.00000000       0.00000000       0.00000000       0.00000000       8.06084824
C        0.00000000       0.00000000       1.53212121       0.00000000       0.00000000      -8.06084824
2
Properties=species:S:1:pos:R:3:forces:R:3 energy=-9.188181568410988 pbc="F F F"
C        0.00000000       0.00000000       0.00000000       0.00000000       0.00000000       8.45835304
C        0.00000000       0.00000000       1.59090909       0.00000000       0.00000000      -8.45835304
2
Properties=species:S:1:pos:R:3:forces:R:3 energy=-8.687888533337295 pbc="F F F"
C        0.00000000       0.00000000       0.00000000       0.00000000       0.00000000       8.52551651
C        0.00000000       0.00000000       1.64969697       0.00000000       0.00000000      -8.52551651
2
Properties=species:S:1:pos:R:3:forces:R:3 energy=-8.187450099585492 pbc="F F F"
C        0.00000000       0.00000000       0.00000000       0.00000000       0.00000000       8.50529003
C        0.00000000       0.00000000       1.70848485       0.00000000       0.00000000      -8.50529003
2
Properties=species:S:1:pos:R:3:forces:R:3 energy=-7.68606168502347 pbc="F F F"
C        0.00000000       0.00000000       0.00000000       0.00000000       0.00000000       8.56895924
C        0.00000000       0.00000000       1.76727273       0.00000000       0.00000000      -8.56895924
2
Properties=species:S:1:pos:R:3:forces:R:3 energy=-7.179159907812445 pbc="F F F"
C        0.00000000       0.00000000       0.00000000       0.00000000       0.00000000       8.66738510
C        0.00000000       0.00000000       1.82606061       0.00000000       0.00000000      -8.66738510
2
Properties=species:S:1:pos:R:3:forces:R:3 energy=-6.6700311121507925 pbc="F F F"
C        0.00000000       0.00000000       0.00000000       0.00000000       0.00000000       8.61295795
C        0.00000000       0.00000000       1.88484848       0.00000000       0.00000000      -8.61295795
2
Properties=species:S:1:pos:R:3:forces:R:3 energy=-6.172174548112713 pbc="F F F"
C        0.00000000       0.00000000       0.00000000       0.00000000       0.00000000       8.27394485
C        0.00000000       0.00000000       1.94363636       0.00000000       0.00000000      -8.27394485
2
Properties=species:S:1:pos:R:3:forces:R:3 energy=-5.702556295680406 pbc="F F F"
C        0.00000000       0.00000000       0.00000000       0.00000000       0.00000000       7.66513252
C        0.00000000       0.00000000       2.00242424       0.00000000       0.00000000      -7.66513252
2
Properties=species:S:1:pos:R:3:forces:R:3 energy=-5.274341033909503 pbc="F F F"
C        0.00000000       0.00000000       0.00000000       0.00000000       0.00000000       6.88229847
C        0.00000000       0.00000000       2.06121212       0.00000000       0.00000000      -6.88229847
2
Properties=species:S:1:pos:R:3:forces:R:3 energy=-4.894914978482781 pbc="F F F"
C        0.00000000       0.00000000       0.00000000       0.00000000       0.00000000       6.02002430
C        0.00000000       0.00000000       2.12000000       0.00000000       0.00000000      -6.02002430
2
Properties=species:S:1:pos:R:3:forces:R:3 energy=-4.5664306291495524 pbc="F F F"
C        0.00000000       0.00000000       0.00000000       0.00000000       0.00000000       5.16282463
C        0.00000000       0.00000000       2.17878788       0.00000000       0.00000000      -5.16282463
2
Properties=species:S:1:pos:R:3:forces:R:3 energy=-4.28632659445684 pbc="F F F"
C        0.00000000       0.00000000       0.00000000       0.00000000       0.00000000       4.38433266
C        0.00000000       0.00000000       2.23757576       0.00000000       0.00000000      -4.38433266
2
Properties=species:S:1:pos:R:3:forces:R:3 energy=-4.0485394042438525 pbc="F F F"
C        0.00000000       0.00000000       0.00000000       0.00000000       0.00000000       3.72665668
C        0.00000000       0.00000000       2.29636364       0.00000000       0.00000000      -3.72665668
2
Properties=species:S:1:pos:R:3:forces:R:3 energy=-3.8457804662220014 pbc="F F F"
C        0.00000000       0.00000000       0.00000000       0.00000000       0.00000000       3.18968654
C        0.00000000       0.00000000       2.35515152       0.00000000       0.00000000      -3.18968654
2
Properties=species:S:1:pos:R:3:forces:R:3 energy=-3.6716874414489755 pbc="F F F"
C        0.00000000       0.00000000       0.00000000       0.00000000       0.00000000       2.74568391
C        0.00000000       0.00000000       2.41393939       0.00000000       0.00000000      -2.74568391
2
Properties=species:S:1:pos:R:3:forces:R:3 energy=-3.521743619344854 pbc="F F F"
C        0.00000000       0.00000000       0.00000000       0.00000000       0.00000000       2.36381888
C        0.00000000       0.00000000       2.47272727       0.00000000       0.00000000      -2.36381888
2
Properties=species:S:1:pos:R:3:forces:R:3 energy=-3.3929245713748624 pbc="F F F"
C        0.00000000       0.00000000       0.00000000       0.00000000       0.00000000       2.02508044
C        0.00000000       0.00000000       2.53151515       0.00000000       0.00000000      -2.02508044
2
Properties=species:S:1:pos:R:3:forces:R:3 energy=-3.2829183098118553 pbc="F F F"
C        0.00000000       0.00000000       0.00000000       0.00000000       0.00000000       1.72361553
C        0.00000000       0.00000000       2.59030303       0.00000000       0.00000000      -1.72361553
2
Properties=species:S:1:pos:R:3:forces:R:3 energy=-3.189509072247984 pbc="F F F"
C        0.00000000       0.00000000       0.00000000       0.00000000       0.00000000       1.46098828
C        0.00000000       0.00000000       2.64909091       0.00000000       0.00000000      -1.46098828
2
Properties=species:S:1:pos:R:3:forces:R:3 energy=-3.110326626378722 pbc="F F F"
C        0.00000000       0.00000000       0.00000000       0.00000000       0.00000000       1.23983216
C        0.00000000       0.00000000       2.70787879       0.00000000       0.00000000      -1.23983216
2
Properties=species:S:1:pos:R:3:forces:R:3 energy=-3.0429212569817614 pbc="F F F"
C        0.00000000       0.00000000       0.00000000       0.00000000       0.00000000       1.06001496
C        0.00000000       0.00000000       2.76666667       0.00000000       0.00000000      -1.06001496
2
Properties=species:S:1:pos:R:3:forces:R:3 energy=-2.984960867557928 pbc="F F F"
C        0.00000000       0.00000000       0.00000000       0.00000000       0.00000000       0.91756493
C        0.00000000       0.00000000       2.82545455       0.00000000       0.00000000      -0.91756493
2
Properties=species:S:1:pos:R:3:forces:R:3 energy=-2.934437509425393 pbc="F F F"
C        0.00000000       0.00000000       0.00000000       0.00000000       0.00000000       0.80572271
C        0.00000000       0.00000000       2.88424242       0.00000000       0.00000000      -0.80572271
2
Properties=species:S:1:pos:R:3:forces:R:3 energy=-2.889779280812734 pbc="F F F"
C        0.00000000       0.00000000       0.00000000       0.00000000       0.00000000       0.71675044
C        0.00000000       0.00000000       2.94303030       0.00000000       0.00000000      -0.71675044
2
Properties=species:S:1:pos:R:3:forces:R:3 energy=-2.849857991099511 pbc="F F F"
C        0.00000000       0.00000000       0.00000000       0.00000000       0.00000000       0.64348722
C        0.00000000       0.00000000       3.00181818       0.00000000       0.00000000      -0.64348722
2
Properties=species:S:1:pos:R:3:forces:R:3 energy=-2.813926709403744 pbc="F F F"
C        0.00000000       0.00000000       0.00000000       0.00000000       0.00000000       0.58019698
C        0.00000000       0.00000000       3.06060606       0.00000000       0.00000000      -0.58019698
2
Properties=species:S:1:pos:R:3:forces:R:3 energy=-2.7815274997596187 pbc="F F F"
C        0.00000000       0.00000000       0.00000000       0.00000000       0.00000000       0.52274293
C        0.00000000       0.00000000       3.11939394       0.00000000       0.00000000      -0.52274293
2
Properties=species:S:1:pos:R:3:forces:R:3 energy=-2.7524041187358503 pbc="F F F"
C        0.00000000       0.00000000       0.00000000       0.00000000       0.00000000       0.46841481
C        0.00000000       0.00000000       3.17818182       0.00000000       0.00000000      -0.46841481
2
Properties=species:S:1:pos:R:3:forces:R:3 energy=-2.726422579283242 pbc="F F F"
C        0.00000000       0.00000000       0.00000000       0.00000000       0.00000000       0.41569641
C        0.00000000       0.00000000       3.23696970       0.00000000       0.00000000      -0.41569641
2
Properties=species:S:1:pos:R:3:forces:R:3 energy=-2.7035069179344218 pbc="F F F"
C        0.00000000       0.00000000       0.00000000       0.00000000       0.00000000       0.36410335
C        0.00000000       0.00000000       3.29575758       0.00000000       0.00000000      -0.36410335
2
Properties=species:S:1:pos:R:3:forces:R:3 energy=-2.6835821414874363 pbc="F F F"
C        0.00000000       0.00000000       0.00000000       0.00000000       0.00000000       0.31409454
C        0.00000000       0.00000000       3.35454545       0.00000000       0.00000000      -0.31409454
2
Properties=species:S:1:pos:R:3:forces:R:3 energy=-2.666522117123069 pbc="F F F"
C        0.00000000       0.00000000       0.00000000       0.00000000       0.00000000       0.26689938
C        0.00000000       0.00000000       3.41333333       0.00000000       0.00000000      -0.26689938
2
Properties=species:S:1:pos:R:3:forces:R:3 energy=-2.6521125224904116 pbc="F F F"
C        0.00000000       0.00000000       0.00000000       0.00000000       0.00000000       0.22422954
C        0.00000000       0.00000000       3.47212121       0.00000000       0.00000000      -0.22422954
2
Properties=species:S:1:pos:R:3:forces:R:3 energy=-2.640034975448203 pbc="F F F"
C        0.00000000       0.00000000       0.00000000       0.00000000       0.00000000       0.18785575
C        0.00000000       0.00000000       3.53090909       0.00000000       0.00000000      -0.18785575
2
Properties=species:S:1:pos:R:3:forces:R:3 energy=-2.62987433871763 pbc="F F F"
C        0.00000000       0.00000000       0.00000000       0.00000000       0.00000000       0.15916850
C        0.00000000       0.00000000       3.58969697       0.00000000       0.00000000      -0.15916850
2
Properties=species:S:1:pos:R:3:forces:R:3 energy=-2.621155553592888 pbc="F F F"
C        0.00000000       0.00000000       0.00000000       0.00000000       0.00000000       0.13885765
C        0.00000000       0.00000000       3.64848485       0.00000000       0.00000000      -0.13885765
2
Properties=species:S:1:pos:R:3:forces:R:3 energy=-2.613386288356442 pbc="F F F"
C        0.00000000       0.00000000       0.00000000       0.00000000       0.00000000       0.12676582
C        0.00000000       0.00000000       3.70727273       0.00000000       0.00000000      -0.12676582
2
Properties=species:S:1:pos:R:3:forces:R:3 energy=-2.6061078648202907 pbc="F F F"
C        0.00000000       0.00000000       0.00000000       0.00000000       0.00000000       0.12194118
C        0.00000000       0.00000000       3.76606061       0.00000000       0.00000000      -0.12194118
2
Properties=species:S:1:pos:R:3:forces:R:3 energy=-2.598937218411976 pbc="F F F"
C        0.00000000       0.00000000       0.00000000       0.00000000       0.00000000       0.12282343
C        0.00000000       0.00000000       3.82484848       0.00000000       0.00000000      -0.12282343
2
Properties=species:S:1:pos:R:3:forces:R:3 energy=-2.5915928778801502 pbc="F F F"
C        0.00000000       0.00000000       0.00000000       0.00000000       0.00000000       0.12746160
C        0.00000000       0.00000000       3.88363636       0.00000000       0.00000000      -0.12746160
2
Properties=species:S:1:pos:R:3:forces:R:3 energy=-2.5839188000248874 pbc="F F F"
C        0.00000000       0.00000000       0.00000000       0.00000000       0.00000000       0.13371986
C        0.00000000       0.00000000       3.94242424       0.00000000       0.00000000      -0.13371986
2
Properties=species:S:1:pos:R:3:forces:R:3 energy=-2.5758822754075785 pbc="F F F"
C        0.00000000       0.00000000       0.00000000       0.00000000       0.00000000       0.13944602
C        0.00000000       0.00000000       4.00121212       0.00000000       0.00000000      -0.13944602
2
Properties=species:S:1:pos:R:3:forces:R:3 energy=-2.5675737093352664 pbc="F F F"
C        0.00000000       0.00000000       0.00000000       0.00000000       0.00000000       0.14262325
C        0.00000000       0.00000000       4.06000000       0.00000000       0.00000000      -0.14262325
2
Properties=species:S:1:pos:R:3:forces:R:3 energy=-2.559195693015849 pbc="F F F"
C        0.00000000       0.00000000       0.00000000       0.00000000       0.00000000       0.14157884
C        0.00000000       0.00000000       4.11878788       0.00000000       0.00000000      -0.14157884
2
Properties=species:S:1:pos:R:3:forces:R:3 energy=-2.5510315988299026 pbc="F F F"
C        0.00000000       0.00000000       0.00000000       0.00000000       0.00000000       0.13522452
C        0.00000000       0.00000000       4.17757576       0.00000000       0.00000000      -0.13522452
2
Properties=species:S:1:pos:R:3:forces:R:3 energy=-2.5434060353167287 pbc="F F F"
C        0.00000000       0.00000000       0.00000000       0.00000000       0.00000000       0.12331642
C        0.00000000       0.00000000       4.23636364       0.00000000       0.00000000      -0.12331642
2
Properties=species:S:1:pos:R:3:forces:R:3 energy=-2.536627435022167 pbc="F F F"
C        0.00000000       0.00000000       0.00000000       0.00000000       0.00000000       0.10659331
C        0.00000000       0.00000000       4.29515152       0.00000000       0.00000000      -0.10659331
2
Properties=species:S:1:pos:R:3:forces:R:3 energy=-2.530935417845591 pbc="F F F"
C        0.00000000       0.00000000       0.00000000       0.00000000       0.00000000       0.08673280
C        0.00000000       0.00000000       4.35393939       0.00000000       0.00000000      -0.08673280
2
Properties=species:S:1:pos:R:3:forces:R:3 energy=-2.526446212588203 pbc="F F F"
C        0.00000000       0.00000000       0.00000000       0.00000000       0.00000000       0.06606137
C        0.00000000       0.00000000       4.41272727       0.00000000       0.00000000      -0.06606137
2
Properties=species:S:1:pos:R:3:forces:R:3 energy=-2.523134355347266 pbc="F F F"
C        0.00000000       0.00000000       0.00000000       0.00000000       0.00000000       0.04707659
C        0.00000000       0.00000000       4.47151515       0.00000000       0.00000000      -0.04707659
2
Properties=species:S:1:pos:R:3:forces:R:3 energy=-2.5208360341078326 pbc="F F F"
C        0.00000000       0.00000000       0.00000000       0.00000000       0.00000000       0.03187399
C        0.00000000       0.00000000       4.53030303       0.00000000       0.00000000      -0.03187399
2
Properties=species:S:1:pos:R:3:forces:R:3 energy=-2.51928942068441 pbc="F F F"
C        0.00000000       0.00000000       0.00000000       0.00000000       0.00000000       0.02162198
C        0.00000000       0.00000000       4.58909091       0.00000000       0.00000000      -0.02162198
2
Properties=species:S:1:pos:R:3:forces:R:3 energy=-2.518197156979533 pbc="F F F"
C        0.00000000       0.00000000       0.00000000       0.00000000       0.00000000       0.01626815
C        0.00000000       0.00000000       4.64787879       0.00000000       0.00000000      -0.01626815
2
Properties=species:S:1:pos:R:3:forces:R:3 energy=-2.517303606167189 pbc="F F F"
C        0.00000000       0.00000000       0.00000000       0.00000000       0.00000000       0.01459226
C        0.00000000       0.00000000       4.70666667       0.00000000       0.00000000      -0.01459226
2
Properties=species:S:1:pos:R:3:forces:R:3 energy=-2.516448281421248 pbc="F F F"
C        0.00000000       0.00000000       0.00000000       0.00000000       0.00000000       0.01460528
C        0.00000000       0.00000000       4.76545455       0.00000000       0.00000000      -0.01460528
2
Properties=species:S:1:pos:R:3:forces:R:3 energy=-2.515593989207243 pbc="F F F"
C        0.00000000       0.00000000       0.00000000       0.00000000       0.00000000       0.01423868
C        0.00000000       0.00000000       4.82424242       0.00000000       0.00000000      -0.01423868
2
Properties=species:S:1:pos:R:3:forces:R:3 energy=-2.5148108609792454 pbc="F F F"
C        0.00000000       0.00000000       0.00000000       0.00000000       0.00000000       0.01204314
C        0.00000000       0.00000000       4.88303030       0.00000000       0.00000000      -0.01204314
2
Properties=species:S:1:pos:R:3:forces:R:3 energy=-2.5142222278066546 pbc="F F F"
C        0.00000000       0.00000000       0.00000000       0.00000000       0.00000000       0.00763259
C        0.00000000       0.00000000       4.94181818       0.00000000       0.00000000      -0.00763259
2
Properties=species:S:1:pos:R:3:forces:R:3 energy=-2.513944078092205 pbc="F F F"
C        0.00000000       0.00000000       0.00000000       0.00000000       0.00000000       0.00168162
C        0.00000000       0.00000000       5.00060606       0.00000000       0.00000000      -0.00168162
2
Properties=species:S:1:pos:R:3:forces:R:3 energy=-2.5140304595193648 pbc="F F F"
C        0.00000000       0.00000000       0.00000000       0.00000000       0.00000000      -0.00458991
C        0.00000000       0.00000000       5.05939394       0.00000000       0.00000000       0.00458991
2
Properties=species:S:1:pos:R:3:forces:R:3 energy=-2.5144694176209557 pbc="F F F"
C        0.00000000       0.00000000       0.00000000       0.00000000       0.00000000      -0.01017572
C        0.00000000       0.00000000       5.11818182       0.00000000       0.00000000       0.01017572
2
Properties=species:S:1:pos:R:3:forces:R:3 energy=-2.515209468754956 pbc="F F F"
C        0.00000000       0.00000000       0.00000000       0.00000000       0.00000000      -0.01488766
C        0.00000000       0.00000000       5.17696970       0.00000000       0.00000000       0.01488766
2
Properties=species:S:1:pos:R:3:forces:R:3 energy=-2.5162158655032485 pbc="F F F"
C        0.00000000       0.00000000       0.00000000       0.00000000       0.00000000      -0.01940200
C        0.00000000       0.00000000       5.23575758       0.00000000       0.00000000       0.01940200
2
Properties=species:S:1:pos:R:3:forces:R:3 energy=-2.5175042058707087 pbc="F F F"
C        0.00000000       0.00000000       0.00000000       0.00000000       0.00000000      -0.02454926
C        0.00000000       0.00000000       5.29454545       0.00000000       0.00000000       0.02454926
2
Properties=species:S:1:pos:R:3:forces:R:3 energy=-2.5191075384509034 pbc="F F F"
C        0.00000000       0.00000000       0.00000000       0.00000000       0.00000000      -0.02985940
C        0.00000000       0.00000000       5.35333333       0.00000000       0.00000000       0.02985940
2
Properties=species:S:1:pos:R:3:forces:R:3 energy=-2.5209611983328286 pbc="F F F"
C        0.00000000       0.00000000       0.00000000       0.00000000       0.00000000      -0.03242831
C        0.00000000       0.00000000       5.41212121       0.00000000       0.00000000       0.03242831
2
Properties=species:S:1:pos:R:3:forces:R:3 energy=-2.522811491993156 pbc="F F F"
C        0.00000000       0.00000000       0.00000000       0.00000000       0.00000000      -0.02968502
C        0.00000000       0.00000000       5.47090909       0.00000000       0.00000000       0.02968502
2
Properties=species:S:1:pos:R:3:forces:R:3 energy=-2.5244014239834334 pbc="F F F"
C        0.00000000       0.00000000       0.00000000       0.00000000       0.00000000      -0.02437065
C        0.00000000       0.00000000       5.52969697       0.00000000       0.00000000       0.02437065
2
Properties=species:S:1:pos:R:3:forces:R:3 energy=-2.5256840810634067 pbc="F F F"
C        0.00000000       0.00000000       0.00000000       0.00000000       0.00000000      -0.01922776
C        0.00000000       0.00000000       5.58848485       0.00000000       0.00000000       0.01922776
2
Properties=species:S:1:pos:R:3:forces:R:3 energy=-2.5266395208915986 pbc="F F F"
C        0.00000000       0.00000000       0.00000000       0.00000000       0.00000000      -0.01300664
C        0.00000000       0.00000000       5.64727273       0.00000000       0.00000000       0.01300664
2
Properties=species:S:1:pos:R:3:forces:R:3 energy=-2.527177496651069 pbc="F F F"
C        0.00000000       0.00000000       0.00000000       0.00000000       0.00000000      -0.00504714
C        0.00000000       0.00000000       5.70606061       0.00000000       0.00000000       0.00504714
2
Properties=species:S:1:pos:R:3:forces:R:3 energy=-2.5272333021101683 pbc="F F F"
C        0.00000000       0.00000000       0.00000000       0.00000000       0.00000000       0.00276593
C        0.00000000       0.00000000       5.76484848       0.00000000       0.00000000      -0.00276593
2
Properties=species:S:1:pos:R:3:forces:R:3 energy=-2.526943241163123 pbc="F F F"
C        0.00000000       0.00000000       0.00000000       0.00000000       0.00000000       0.00614802
C        0.00000000       0.00000000       5.82363636       0.00000000       0.00000000      -0.00614802
2
Properties=species:S:1:pos:R:3:forces:R:3 energy=-2.5266091043032035 pbc="F F F"
C        0.00000000       0.00000000       0.00000000       0.00000000       0.00000000       0.00471151
C        0.00000000       0.00000000       5.88242424       0.00000000       0.00000000      -0.00471151
2
Properties=species:S:1:pos:R:3:forces:R:3 energy=-2.5264139723400088 pbc="F F F"
C        0.00000000       0.00000000       0.00000000       0.00000000       0.00000000       0.00197472
C        0.00000000       0.00000000       5.94121212       0.00000000       0.00000000      -0.00197472
2
Properties=species:S:1:pos:R:3:forces:R:3 energy=-2.526346156962453 pbc="F F F"
C        0.00000000       0.00000000       0.00000000       0.00000000       0.00000000       0.00071887
C        0.00000000       0.00000000       6.00000000       0.00000000       0.00000000      -0.00071887
