2
Properties=species:S:1:pos:R:3:forces:R:3 energy=2327.3080193199817 pbc="F F F"
Ca       0.00000000       0.00000000       0.00000000       0.00000000       0.00000000  -34714.93750000
Ca       0.00000000       0.00000000       0.18000000       0.00000000       0.00000000   34714.93750000
2
Properties=species:S:1:pos:R:3:forces:R:3 energy=1049.921544710607 pbc="F F F"
Ca       0.00000000       0.00000000       0.00000000       0.00000000       0.00000000  -12967.35156250
Ca       0.00000000       0.00000000       0.23878788       0.00000000       0.00000000   12967.35156250
2
Properties=species:S:1:pos:R:3:forces:R:3 energy=536.3041130699819 pbc="F F F"
Ca       0.00000000       0.00000000       0.00000000       0.00000000       0.00000000   -5682.01562500
Ca       0.00000000       0.00000000       0.29757576       0.00000000       0.00000000    5682.01562500
2
Properties=species:S:1:pos:R:3:forces:R:3 energy=299.89029471060684 pbc="F F F"
Ca       0.00000000       0.00000000       0.00000000       0.00000000       0.00000000   -2765.15112305
Ca       0.00000000       0.00000000       0.35636364       0.00000000       0.00000000    2765.15112305
2
Properties=species:S:1:pos:R:3:forces:R:3 energy=180.8756615445672 pbc="F F F"
Ca       0.00000000       0.00000000       0.00000000       0.00000000       0.00000000   -1445.56896973
Ca       0.00000000       0.00000000       0.41515152       0.00000000       0.00000000    1445.56896973
2
Properties=species:S:1:pos:R:3:forces:R:3 energy=117.11997765831272 pbc="F F F"
Ca       0.00000000       0.00000000       0.00000000       0.00000000       0.00000000    -795.77130127
Ca       0.00000000       0.00000000       0.47393939       0.00000000       0.00000000     795.77130127
2
Properties=species:S:1:pos:R:3:forces:R:3 energy=81.3544289902719 pbc="F F F"
Ca       0.00000000       0.00000000       0.00000000       0.00000000       0.00000000    -456.04605103
Ca       0.00000000       0.00000000       0.53272727       0.00000000       0.00000000     456.04605103
2
Properties=species:S:1:pos:R:3:forces:R:3 energy=60.52677324872072 pbc="F F F"
Ca       0.00000000       0.00000000       0.00000000       0.00000000       0.00000000    -270.55538940
Ca       0.00000000       0.00000000       0.59151515       0.00000000       0.00000000     270.55538940
2
Properties=species:S:1:pos:R:3:forces:R:3 energy=47.978662375505685 pbc="F F F"
Ca       0.00000000       0.00000000       0.00000000       0.00000000       0.00000000    -166.06436157
Ca       0.00000000       0.00000000       0.65030303       0.00000000       0.00000000     166.06436157
2
Properties=species:S:1:pos:R:3:forces:R:3 energy=40.140169167721886 pbc="F F F"
Ca       0.00000000       0.00000000       0.00000000       0.00000000       0.00000000    -106.08186340
Ca       0.00000000       0.00000000       0.70909091       0.00000000       0.00000000     106.08186340
2
Properties=species:S:1:pos:R:3:forces:R:3 energy=35.01096940144434 pbc="F F F"
Ca       0.00000000       0.00000000       0.00000000       0.00000000       0.00000000     -71.63732147
Ca       0.00000000       0.00000000       0.76787879       0.00000000       0.00000000      71.63732147
2
Properties=species:S:1:pos:R:3:forces:R:3 energy=31.419714542909563 pbc="F F F"
Ca       0.00000000       0.00000000       0.00000000       0.00000000       0.00000000     -52.52522278
Ca       0.00000000       0.00000000       0.82666667       0.00000000       0.00000000      52.52522278
2
Properties=species:S:1:pos:R:3:forces:R:3 energy=28.647559224685914 pbc="F F F"
Ca       0.00000000       0.00000000       0.00000000       0.00000000       0.00000000     -43.07070923
Ca       0.00000000       0.00000000       0.88545455       0.00000000       0.00000000      43.07070923
2
Properties=species:S:1:pos:R:3:forces:R:3 energy=26.23054478256675 pbc="F F F"
Ca       0.00000000       0.00000000       0.00000000       0.00000000       0.00000000     -40.03894806
Ca       0.00000000       0.00000000       0.94424242       0.00000000       0.00000000      40.03894806
2
Properties=species:S:1:pos:R:3:forces:R:3 energy=23.8557287750257 pbc="F F F"
Ca       0.00000000       0.00000000       0.00000000       0.00000000       0.00000000     -41.26976395
Ca       0.00000000       0.00000000       1.00303030       0.00000000       0.00000000      41.26976395
2
Properties=species:S:1:pos:R:3:forces:R:3 energy=21.352044955896947 pbc="F F F"
Ca       0.00000000       0.00000000       0.00000000       0.00000000       0.00000000     -43.82387161
Ca       0.00000000       0.00000000       1.06181818       0.00000000       0.00000000      43.82387161
2
Properties=species:S:1:pos:R:3:forces:R:3 energy=18.731750048865248 pbc="F F F"
Ca       0.00000000       0.00000000       0.00000000       0.00000000       0.00000000     -45.02787399
Ca       0.00000000       0.00000000       1.12060606       0.00000000       0.00000000      45.02787399
2
Properties=species:S:1:pos:R:3:forces:R:3 energy=16.09984940691185 pbc="F F F"
Ca       0.00000000       0.00000000       0.00000000       0.00000000       0.00000000     -44.02798080
Ca       0.00000000       0.00000000       1.17939394       0.00000000       0.00000000      44.02798080
2
Properties=species:S:1:pos:R:3:forces:R:3 energy=13.62169883912269 pbc="F F F"
Ca       0.00000000       0.00000000       0.00000000       0.00000000       0.00000000     -39.73999786
Ca       0.00000000       0.00000000       1.23818182       0.00000000       0.00000000      39.73999786
2
Properties=species:S:1:pos:R:3:forces:R:3 energy=11.468478243633989 pbc="F F F"
Ca       0.00000000       0.00000000       0.00000000       0.00000000       0.00000000     -33.41947937
Ca       0.00000000       0.00000000       1.29696970       0.00000000       0.00000000      33.41947937
2
Properties=species:S:1:pos:R:3:forces:R:3 energy=9.675204798722307 pbc="F F F"
Ca       0.00000000       0.00000000       0.00000000       0.00000000       0.00000000     -27.89332771
Ca       0.00000000       0.00000000       1.35575758       0.00000000       0.00000000      27.89332771
2
Properties=species:S:1:pos:R:3:forces:R:3 energy=8.15448684112445 pbc="F F F"
Ca       0.00000000       0.00000000       0.00000000       0.00000000       0.00000000     -24.02170181
Ca       0.00000000       0.00000000       1.41454545       0.00000000       0.00000000      24.02170181
2
Properties=species:S:1:pos:R:3:forces:R:3 energy=6.850064000467414 pbc="F F F"
Ca       0.00000000       0.00000000       0.00000000       0.00000000       0.00000000     -20.23143005
Ca       0.00000000       0.00000000       1.47333333       0.00000000       0.00000000      20.23143005
2
Properties=species:S:1:pos:R:3:forces:R:3 energy=5.789134844843719 pbc="F F F"
Ca       0.00000000       0.00000000       0.00000000       0.00000000       0.00000000     -15.83423710
Ca       0.00000000       0.00000000       1.53212121       0.00000000       0.00000000      15.83423710
2
Properties=species:S:1:pos:R:3:forces:R:3 energy=4.982857165686508 pbc="F F F"
Ca       0.00000000       0.00000000       0.00000000       0.00000000       0.00000000     -11.66328716
Ca       0.00000000       0.00000000       1.59090909       0.00000000       0.00000000      11.66328716
2
Properties=species:S:1:pos:R:3:forces:R:3 energy=4.410634311400702 pbc="F F F"
Ca       0.00000000       0.00000000       0.00000000       0.00000000       0.00000000      -7.88293076
Ca       0.00000000       0.00000000       1.64969697       0.00000000       0.00000000       7.88293076
2
Properties=species:S:1:pos:R:3:forces:R:3 energy=4.040280630783404 pbc="F F F"
Ca       0.00000000       0.00000000       0.00000000       0.00000000       0.00000000      -4.90813875
Ca       0.00000000       0.00000000       1.70848485       0.00000000       0.00000000       4.90813875
2
Properties=species:S:1:pos:R:3:forces:R:3 energy=3.807690303348443 pbc="F F F"
Ca       0.00000000       0.00000000       0.00000000       0.00000000       0.00000000      -3.22509694
Ca       0.00000000       0.00000000       1.76727273       0.00000000       0.00000000       3.22509694
2
Properties=species:S:1:pos:R:3:forces:R:3 energy=3.6389759729212887 pbc="F F F"
Ca       0.00000000       0.00000000       0.00000000       0.00000000       0.00000000      -2.65986228
Ca       0.00000000       0.00000000       1.82606061       0.00000000       0.00000000       2.65986228
2
Properties=species:S:1:pos:R:3:forces:R:3 energy=3.482933992479315 pbc="F F F"
Ca       0.00000000       0.00000000       0.00000000       0.00000000       0.00000000      -2.71512341
Ca       0.00000000       0.00000000       1.88484848       0.00000000       0.00000000       2.71512341
2
Properties=species:S:1:pos:R:3:forces:R:3 energy=3.314642097153992 pbc="F F F"
Ca       0.00000000       0.00000000       0.00000000       0.00000000       0.00000000      -3.03815866
Ca       0.00000000       0.00000000       1.94363636       0.00000000       0.00000000       3.03815866
2
Properties=species:S:1:pos:R:3:forces:R:3 energy=3.1234870275478848 pbc="F F F"
Ca       0.00000000       0.00000000       0.00000000       0.00000000       0.00000000      -3.47681379
Ca       0.00000000       0.00000000       2.00242424       0.00000000       0.00000000       3.47681379
2
Properties=species:S:1:pos:R:3:forces:R:3 energy=2.9053084244772487 pbc="F F F"
Ca       0.00000000       0.00000000       0.00000000       0.00000000       0.00000000      -3.94300628
Ca       0.00000000       0.00000000       2.06121212       0.00000000       0.00000000       3.94300628
2
Properties=species:S:1:pos:R:3:forces:R:3 energy=2.6610278334431783 pbc="F F F"
Ca       0.00000000       0.00000000       0.00000000       0.00000000       0.00000000      -4.35183954
Ca       0.00000000       0.00000000       2.12000000       0.00000000       0.00000000       4.35183954
2
Properties=species:S:1:pos:R:3:forces:R:3 energy=2.3959322084521553 pbc="F F F"
Ca       0.00000000       0.00000000       0.00000000       0.00000000       0.00000000      -4.64526606
Ca       0.00000000       0.00000000       2.17878788       0.00000000       0.00000000       4.64526606
2
Properties=species:S:1:pos:R:3:forces:R:3 energy=2.1173977275054643 pbc="F F F"
Ca       0.00000000       0.00000000       0.00000000       0.00000000       0.00000000      -4.80974340
Ca       0.00000000       0.00000000       2.23757576       0.00000000       0.00000000       4.80974340
2
Properties=species:S:1:pos:R:3:forces:R:3 energy=1.8327462546858146 pbc="F F F"
Ca       0.00000000       0.00000000       0.00000000       0.00000000       0.00000000      -4.85539055
Ca       0.00000000       0.00000000       2.29636364       0.00000000       0.00000000       4.85539055
2
Properties=species:S:1:pos:R:3:forces:R:3 energy=1.5487119344394515 pbc="F F F"
Ca       0.00000000       0.00000000       0.00000000       0.00000000       0.00000000      -4.78902149
Ca       0.00000000       0.00000000       2.35515152       0.00000000       0.00000000       4.78902149
2
Properties=species:S:1:pos:R:3:forces:R:3 energy=1.2718690337163505 pbc="F F F"
Ca       0.00000000       0.00000000       0.00000000       0.00000000       0.00000000      -4.61085081
Ca       0.00000000       0.00000000       2.41393939       0.00000000       0.00000000       4.61085081
2
Properties=species:S:1:pos:R:3:forces:R:3 energy=1.0086595656792212 pbc="F F F"
Ca       0.00000000       0.00000000       0.00000000       0.00000000       0.00000000      -4.32741213
Ca       0.00000000       0.00000000       2.47272727       0.00000000       0.00000000       4.32741213
2
Properties=species:S:1:pos:R:3:forces:R:3 energy=0.7647331870216111 pbc="F F F"
Ca       0.00000000       0.00000000       0.00000000       0.00000000       0.00000000      -3.95949960
Ca       0.00000000       0.00000000       2.53151515       0.00000000       0.00000000       3.95949960
2
Properties=species:S:1:pos:R:3:forces:R:3 energy=0.5441644726045017 pbc="F F F"
Ca       0.00000000       0.00000000       0.00000000       0.00000000       0.00000000      -3.53835225
Ca       0.00000000       0.00000000       2.59030303       0.00000000       0.00000000       3.53835225
2
Properties=species:S:1:pos:R:3:forces:R:3 energy=0.34909733807226345 pbc="F F F"
Ca       0.00000000       0.00000000       0.00000000       0.00000000       0.00000000      -3.09717035
Ca       0.00000000       0.00000000       2.64909091       0.00000000       0.00000000       3.09717035
2
Properties=species:S:1:pos:R:3:forces:R:3 energy=0.17983057464174806 pbc="F F F"
Ca       0.00000000       0.00000000       0.00000000       0.00000000       0.00000000      -2.66498303
Ca       0.00000000       0.00000000       2.70787879       0.00000000       0.00000000       2.66498303
2
Properties=species:S:1:pos:R:3:forces:R:3 energy=0.035142894113081455 pbc="F F F"
Ca       0.00000000       0.00000000       0.00000000       0.00000000       0.00000000      -2.26406479
Ca       0.00000000       0.00000000       2.76666667       0.00000000       0.00000000       2.26406479
2
Properties=species:S:1:pos:R:3:forces:R:3 energy=-0.08727901814400926 pbc="F F F"
Ca       0.00000000       0.00000000       0.00000000       0.00000000       0.00000000      -1.90937567
Ca       0.00000000       0.00000000       2.82545455       0.00000000       0.00000000       1.90937567
2
Properties=species:S:1:pos:R:3:forces:R:3 energy=-0.1904142481827127 pbc="F F F"
Ca       0.00000000       0.00000000       0.00000000       0.00000000       0.00000000      -1.60858572
Ca       0.00000000       0.00000000       2.88424242       0.00000000       0.00000000       1.60858572
2
Properties=species:S:1:pos:R:3:forces:R:3 energy=-0.2774866852339908 pbc="F F F"
Ca       0.00000000       0.00000000       0.00000000       0.00000000       0.00000000      -1.36252654
Ca       0.00000000       0.00000000       2.94303030       0.00000000       0.00000000       1.36252654
2
Properties=species:S:1:pos:R:3:forces:R:3 energy=-0.35159216120541986 pbc="F F F"
Ca       0.00000000       0.00000000       0.00000000       0.00000000       0.00000000      -1.16621387
Ca       0.00000000       0.00000000       3.00181818       0.00000000       0.00000000       1.16621387
2
Properties=species:S:1:pos:R:3:forces:R:3 energy=-0.41540041347616247 pbc="F F F"
Ca       0.00000000       0.00000000       0.00000000       0.00000000       0.00000000      -1.01040637
Ca       0.00000000       0.00000000       3.06060606       0.00000000       0.00000000       1.01040637
2
Properties=species:S:1:pos:R:3:forces:R:3 energy=-0.4709560902246081 pbc="F F F"
Ca       0.00000000       0.00000000       0.00000000       0.00000000       0.00000000      -0.88343203
Ca       0.00000000       0.00000000       3.11939394       0.00000000       0.00000000       0.88343203
2
Properties=species:S:1:pos:R:3:forces:R:3 energy=-0.5195981220851734 pbc="F F F"
Ca       0.00000000       0.00000000       0.00000000       0.00000000       0.00000000      -0.77324873
Ca       0.00000000       0.00000000       3.17818182       0.00000000       0.00000000       0.77324873
2
Properties=species:S:1:pos:R:3:forces:R:3 energy=-0.5619968149261907 pbc="F F F"
Ca       0.00000000       0.00000000       0.00000000       0.00000000       0.00000000      -0.66959178
Ca       0.00000000       0.00000000       3.23696970       0.00000000       0.00000000       0.66959178
2
Properties=species:S:1:pos:R:3:forces:R:3 energy=-0.5983200346072544 pbc="F F F"
Ca       0.00000000       0.00000000       0.00000000       0.00000000       0.00000000      -0.56579512
Ca       0.00000000       0.00000000       3.29575758       0.00000000       0.00000000       0.56579512
2
Properties=species:S:1:pos:R:3:forces:R:3 energy=-0.6284726949739509 pbc="F F F"
Ca       0.00000000       0.00000000       0.00000000       0.00000000       0.00000000      -0.45968401
Ca       0.00000000       0.00000000       3.35454545       0.00000000       0.00000000       0.45968401
2
Properties=species:S:1:pos:R:3:forces:R:3 energy=-0.6523578620919998 pbc="F F F"
Ca       0.00000000       0.00000000       0.00000000       0.00000000       0.00000000      -0.35315311
Ca       0.00000000       0.00000000       3.41333333       0.00000000       0.00000000       0.35315311
2
Properties=species:S:1:pos:R:3:forces:R:3 energy=-0.6700706266018079 pbc="F F F"
Ca       0.00000000       0.00000000       0.00000000       0.00000000       0.00000000      -0.25050446
Ca       0.00000000       0.00000000       3.47212121       0.00000000       0.00000000       0.25050446
2
Properties=species:S:1:pos:R:3:forces:R:3 energy=-0.681977076793067 pbc="F F F"
Ca       0.00000000       0.00000000       0.00000000       0.00000000       0.00000000      -0.15624490
Ca       0.00000000       0.00000000       3.53090909       0.00000000       0.00000000       0.15624490
2
Properties=species:S:1:pos:R:3:forces:R:3 energy=-0.6886634890413015 pbc="F F F"
Ca       0.00000000       0.00000000       0.00000000       0.00000000       0.00000000      -0.07322544
Ca       0.00000000       0.00000000       3.58969697       0.00000000       0.00000000       0.07322544
2
Properties=species:S:1:pos:R:3:forces:R:3 energy=-0.6908176114915324 pbc="F F F"
Ca       0.00000000       0.00000000       0.00000000       0.00000000       0.00000000      -0.00195785
Ca       0.00000000       0.00000000       3.64848485       0.00000000       0.00000000       0.00195785
2
Properties=species:S:1:pos:R:3:forces:R:3 energy=-0.6891014160629837 pbc="F F F"
Ca       0.00000000       0.00000000       0.00000000       0.00000000       0.00000000       0.05870396
Ca       0.00000000       0.00000000       3.70727273       0.00000000       0.00000000      -0.05870396
2
Properties=species:S:1:pos:R:3:forces:R:3 energy=-0.6840965359789778 pbc="F F F"
Ca       0.00000000       0.00000000       0.00000000       0.00000000       0.00000000       0.11008911
Ca       0.00000000       0.00000000       3.76606061       0.00000000       0.00000000      -0.11008911
2
Properties=species:S:1:pos:R:3:forces:R:3 energy=-0.6763321475280084 pbc="F F F"
Ca       0.00000000       0.00000000       0.00000000       0.00000000       0.00000000       0.15253441
Ca       0.00000000       0.00000000       3.82484848       0.00000000       0.00000000      -0.15253441
2
Properties=species:S:1:pos:R:3:forces:R:3 energy=-0.6663501759139577 pbc="F F F"
Ca       0.00000000       0.00000000       0.00000000       0.00000000       0.00000000       0.18540180
Ca       0.00000000       0.00000000       3.88363636       0.00000000       0.00000000      -0.18540180
2
Properties=species:S:1:pos:R:3:forces:R:3 energy=-0.6547275552057296 pbc="F F F"
Ca       0.00000000       0.00000000       0.00000000       0.00000000       0.00000000       0.20845288
Ca       0.00000000       0.00000000       3.94242424       0.00000000       0.00000000      -0.20845288
2
Properties=species:S:1:pos:R:3:forces:R:3 energy=-0.6419930187252695 pbc="F F F"
Ca       0.00000000       0.00000000       0.00000000       0.00000000       0.00000000       0.22388443
Ca       0.00000000       0.00000000       4.00121212       0.00000000       0.00000000      -0.22388443
2
Properties=species:S:1:pos:R:3:forces:R:3 energy=-0.6284483145582842 pbc="F F F"
Ca       0.00000000       0.00000000       0.00000000       0.00000000       0.00000000       0.23709320
Ca       0.00000000       0.00000000       4.06000000       0.00000000       0.00000000      -0.23709320
2
Properties=species:S:1:pos:R:3:forces:R:3 energy=-0.6140418424241759 pbc="F F F"
Ca       0.00000000       0.00000000       0.00000000       0.00000000       0.00000000       0.25396854
Ca       0.00000000       0.00000000       4.11878788       0.00000000       0.00000000      -0.25396854
2
Properties=species:S:1:pos:R:3:forces:R:3 energy=-0.5984782426793924 pbc="F F F"
Ca       0.00000000       0.00000000       0.00000000       0.00000000       0.00000000       0.27623019
Ca       0.00000000       0.00000000       4.17757576       0.00000000       0.00000000      -0.27623019
2
Properties=species:S:1:pos:R:3:forces:R:3 energy=-0.5815254405296724 pbc="F F F"
Ca       0.00000000       0.00000000       0.00000000       0.00000000       0.00000000       0.30038303
Ca       0.00000000       0.00000000       4.23636364       0.00000000       0.00000000      -0.30038303
2
Properties=species:S:1:pos:R:3:forces:R:3 energy=-0.5632210110505467 pbc="F F F"
Ca       0.00000000       0.00000000       0.00000000       0.00000000       0.00000000       0.32152402
Ca       0.00000000       0.00000000       4.29515152       0.00000000       0.00000000      -0.32152402
2
Properties=species:S:1:pos:R:3:forces:R:3 energy=-0.5438366862653832 pbc="F F F"
Ca       0.00000000       0.00000000       0.00000000       0.00000000       0.00000000       0.33692715
Ca       0.00000000       0.00000000       4.35393939       0.00000000       0.00000000      -0.33692715
2
Properties=species:S:1:pos:R:3:forces:R:3 energy=-0.5237218293339271 pbc="F F F"
Ca       0.00000000       0.00000000       0.00000000       0.00000000       0.00000000       0.34651124
Ca       0.00000000       0.00000000       4.41272727       0.00000000       0.00000000      -0.34651124
2
Properties=species:S:1:pos:R:3:forces:R:3 energy=-0.5031831634277633 pbc="F F F"
Ca       0.00000000       0.00000000       0.00000000       0.00000000       0.00000000       0.35160458
Ca       0.00000000       0.00000000       4.47151515       0.00000000       0.00000000      -0.35160458
2
Properties=species:S:1:pos:R:3:forces:R:3 energy=-0.48243866990879986 pbc="F F F"
Ca       0.00000000       0.00000000       0.00000000       0.00000000       0.00000000       0.35375619
Ca       0.00000000       0.00000000       4.53030303       0.00000000       0.00000000      -0.35375619
2
Properties=species:S:1:pos:R:3:forces:R:3 energy=-0.46162546209619576 pbc="F F F"
Ca       0.00000000       0.00000000       0.00000000       0.00000000       0.00000000       0.35408592
Ca       0.00000000       0.00000000       4.58909091       0.00000000       0.00000000      -0.35408592
2
Properties=species:S:1:pos:R:3:forces:R:3 energy=-0.4408331131073127 pbc="F F F"
Ca       0.00000000       0.00000000       0.00000000       0.00000000       0.00000000       0.35307151
Ca       0.00000000       0.00000000       4.64787879       0.00000000       0.00000000      -0.35307151
2
Properties=species:S:1:pos:R:3:forces:R:3 energy=-0.4201411715954254 pbc="F F F"
Ca       0.00000000       0.00000000       0.00000000       0.00000000       0.00000000       0.35058290
Ca       0.00000000       0.00000000       4.70666667       0.00000000       0.00000000      -0.35058290
2
Properties=species:S:1:pos:R:3:forces:R:3 energy=-0.39965185892657945 pbc="F F F"
Ca       0.00000000       0.00000000       0.00000000       0.00000000       0.00000000       0.34611464
Ca       0.00000000       0.00000000       4.76545455       0.00000000       0.00000000      -0.34611464
2
Properties=species:S:1:pos:R:3:forces:R:3 energy=-0.379495496667033 pbc="F F F"
Ca       0.00000000       0.00000000       0.00000000       0.00000000       0.00000000       0.33912402
Ca       0.00000000       0.00000000       4.82424242       0.00000000       0.00000000      -0.33912402
2
Properties=species:S:1:pos:R:3:forces:R:3 energy=-0.359833501395352 pbc="F F F"
Ca       0.00000000       0.00000000       0.00000000       0.00000000       0.00000000       0.32941687
Ca       0.00000000       0.00000000       4.88303030       0.00000000       0.00000000      -0.32941687
2
Properties=species:S:1:pos:R:3:forces:R:3 energy=-0.34081035050673836 pbc="F F F"
Ca       0.00000000       0.00000000       0.00000000       0.00000000       0.00000000       0.31740659
Ca       0.00000000       0.00000000       4.94181818       0.00000000       0.00000000      -0.31740659
2
Properties=species:S:1:pos:R:3:forces:R:3 energy=-0.3225373250804422 pbc="F F F"
Ca       0.00000000       0.00000000       0.00000000       0.00000000       0.00000000       0.30419058
Ca       0.00000000       0.00000000       5.00060606       0.00000000       0.00000000      -0.30419058
2
Properties=species:S:1:pos:R:3:forces:R:3 energy=-0.3050379288723597 pbc="F F F"
Ca       0.00000000       0.00000000       0.00000000       0.00000000       0.00000000       0.29130197
Ca       0.00000000       0.00000000       5.05939394       0.00000000       0.00000000      -0.29130197
2
Properties=species:S:1:pos:R:3:forces:R:3 energy=-0.28825312715225043 pbc="F F F"
Ca       0.00000000       0.00000000       0.00000000       0.00000000       0.00000000       0.28011832
Ca       0.00000000       0.00000000       5.11818182       0.00000000       0.00000000      -0.28011832
2
Properties=species:S:1:pos:R:3:forces:R:3 energy=-0.2720651554675321 pbc="F F F"
Ca       0.00000000       0.00000000       0.00000000       0.00000000       0.00000000       0.27080852
Ca       0.00000000       0.00000000       5.17696970       0.00000000       0.00000000      -0.27080852
2
Properties=species:S:1:pos:R:3:forces:R:3 energy=-0.2564214286383678 pbc="F F F"
Ca       0.00000000       0.00000000       0.00000000       0.00000000       0.00000000       0.26096490
Ca       0.00000000       0.00000000       5.23575758       0.00000000       0.00000000      -0.26096490
2
Properties=species:S:1:pos:R:3:forces:R:3 energy=-0.24148740309880473 pbc="F F F"
Ca       0.00000000       0.00000000       0.00000000       0.00000000       0.00000000       0.24586579
Ca       0.00000000       0.00000000       5.29454545       0.00000000       0.00000000      -0.24586579
2
Properties=species:S:1:pos:R:3:forces:R:3 energy=-0.22763744305099975 pbc="F F F"
Ca       0.00000000       0.00000000       0.00000000       0.00000000       0.00000000       0.22497925
Ca       0.00000000       0.00000000       5.35333333       0.00000000       0.00000000      -0.22497925
2
Properties=species:S:1:pos:R:3:forces:R:3 energy=-0.214889209940161 pbc="F F F"
Ca       0.00000000       0.00000000       0.00000000       0.00000000       0.00000000       0.21174133
Ca       0.00000000       0.00000000       5.41212121       0.00000000       0.00000000      -0.21174133
2
Properties=species:S:1:pos:R:3:forces:R:3 energy=-0.20230019862634446 pbc="F F F"
Ca       0.00000000       0.00000000       0.00000000       0.00000000       0.00000000       0.21959867
Ca       0.00000000       0.00000000       5.47090909       0.00000000       0.00000000      -0.21959867
2
Properties=species:S:1:pos:R:3:forces:R:3 energy=-0.18901396022918893 pbc="F F F"
Ca       0.00000000       0.00000000       0.00000000       0.00000000       0.00000000       0.22994031
Ca       0.00000000       0.00000000       5.52969697       0.00000000       0.00000000      -0.22994031
2
Properties=species:S:1:pos:R:3:forces:R:3 energy=-0.17571163661013972 pbc="F F F"
Ca       0.00000000       0.00000000       0.00000000       0.00000000       0.00000000       0.21928701
Ca       0.00000000       0.00000000       5.58848485       0.00000000       0.00000000      -0.21928701
2
Properties=species:S:1:pos:R:3:forces:R:3 energy=-0.16330692108182077 pbc="F F F"
Ca       0.00000000       0.00000000       0.00000000       0.00000000       0.00000000       0.20599173
Ca       0.00000000       0.00000000       5.64727273       0.00000000       0.00000000      -0.20599173
2
Properties=species:S:1:pos:R:3:forces:R:3 energy=-0.15074216222630854 pbc="F F F"
Ca       0.00000000       0.00000000       0.00000000       0.00000000       0.00000000       0.22928436
Ca       0.00000000       0.00000000       5.70606061       0.00000000       0.00000000      -0.22928436
2
Properties=species:S:1:pos:R:3:forces:R:3 energy=-0.13575080292044964 pbc="F F F"
Ca       0.00000000       0.00000000       0.00000000       0.00000000       0.00000000       0.27835733
Ca       0.00000000       0.00000000       5.76484848       0.00000000       0.00000000      -0.27835733
2
Properties=species:S:1:pos:R:3:forces:R:3 energy=-0.11912067201550543 pbc="F F F"
Ca       0.00000000       0.00000000       0.00000000       0.00000000       0.00000000       0.27258295
Ca       0.00000000       0.00000000       5.82363636       0.00000000       0.00000000      -0.27258295
2
Properties=species:S:1:pos:R:3:forces:R:3 energy=-0.10547612472394596 pbc="F F F"
Ca       0.00000000       0.00000000       0.00000000       0.00000000       0.00000000       0.18327263
Ca       0.00000000       0.00000000       5.88242424       0.00000000       0.00000000      -0.18327263
2
Properties=species:S:1:pos:R:3:forces:R:3 energy=-0.0978385585742568 pbc="F F F"
Ca       0.00000000       0.00000000       0.00000000       0.00000000       0.00000000       0.08070186
Ca       0.00000000       0.00000000       5.94121212       0.00000000       0.00000000      -0.08070186
2
Properties=species:S:1:pos:R:3:forces:R:3 energy=-0.09476549515032996 pbc="F F F"
Ca       0.00000000       0.00000000       0.00000000       0.00000000       0.00000000       0.03754949
Ca       0.00000000       0.00000000       6.00000000       0.00000000       0.00000000      -0.03754949
