2
Properties=species:S:1:pos:R:3:forces:R:3 energy=9658.558019319982 pbc="F F F"
Ca       0.00000000       0.00000000       0.00000000       0.00000000       0.00000000 -209397.46875000
Ca       0.00000000       0.00000000       0.10000000       0.00000000       0.00000000  209397.46875000
2
Properties=species:S:1:pos:R:3:forces:R:3 energy=3193.4337517418567 pbc="F F F"
Ca       0.00000000       0.00000000       0.00000000       0.00000000       0.00000000  -51518.87109375
Ca       0.00000000       0.00000000       0.15959596       0.00000000       0.00000000   51518.87109375
2
Properties=species:S:1:pos:R:3:forces:R:3 energy=1346.8789421715444 pbc="F F F"
Ca       0.00000000       0.00000000       0.00000000       0.00000000       0.00000000  -17625.88281250
Ca       0.00000000       0.00000000       0.21919192       0.00000000       0.00000000   17625.88281250
2
Properties=species:S:1:pos:R:3:forces:R:3 energy=657.4861809410756 pbc="F F F"
Ca       0.00000000       0.00000000       0.00000000       0.00000000       0.00000000   -7297.40380859
Ca       0.00000000       0.00000000       0.27878788       0.00000000       0.00000000    7297.40380859
2
Properties=species:S:1:pos:R:3:forces:R:3 energy=355.2220207848256 pbc="F F F"
Ca       0.00000000       0.00000000       0.00000000       0.00000000       0.00000000   -3416.23632812
Ca       0.00000000       0.00000000       0.33838384       0.00000000       0.00000000    3416.23632812
2
Properties=species:S:1:pos:R:3:forces:R:3 energy=208.11054008460627 pbc="F F F"
Ca       0.00000000       0.00000000       0.00000000       0.00000000       0.00000000   -1736.58593750
Ca       0.00000000       0.00000000       0.39797980       0.00000000       0.00000000    1736.58593750
2
Properties=species:S:1:pos:R:3:forces:R:3 energy=131.2502495699338 pbc="F F F"
Ca       0.00000000       0.00000000       0.00000000       0.00000000       0.00000000    -935.48535156
Ca       0.00000000       0.00000000       0.45757576       0.00000000       0.00000000     935.48535156
2
Properties=species:S:1:pos:R:3:forces:R:3 energy=88.98237392388967 pbc="F F F"
Ca       0.00000000       0.00000000       0.00000000       0.00000000       0.00000000    -526.57574463
Ca       0.00000000       0.00000000       0.51717172       0.00000000       0.00000000     526.57574463
2
Properties=species:S:1:pos:R:3:forces:R:3 energy=64.78230073238733 pbc="F F F"
Ca       0.00000000       0.00000000       0.00000000       0.00000000       0.00000000    -307.45452881
Ca       0.00000000       0.00000000       0.57676768       0.00000000       0.00000000     307.45452881
2
Properties=species:S:1:pos:R:3:forces:R:3 energy=50.42825494049514 pbc="F F F"
Ca       0.00000000       0.00000000       0.00000000       0.00000000       0.00000000    -185.83367920
Ca       0.00000000       0.00000000       0.63636364       0.00000000       0.00000000     185.83367920
2
Properties=species:S:1:pos:R:3:forces:R:3 energy=41.60191153083107 pbc="F F F"
Ca       0.00000000       0.00000000       0.00000000       0.00000000       0.00000000    -116.77303314
Ca       0.00000000       0.00000000       0.69595960       0.00000000       0.00000000     116.77303314
2
Properties=species:S:1:pos:R:3:forces:R:3 energy=35.92813319963614 pbc="F F F"
Ca       0.00000000       0.00000000       0.00000000       0.00000000       0.00000000     -77.33366394
Ca       0.00000000       0.00000000       0.75555556       0.00000000       0.00000000      77.33366394
2
Properties=species:S:1:pos:R:3:forces:R:3 energy=32.04057170565136 pbc="F F F"
Ca       0.00000000       0.00000000       0.00000000       0.00000000       0.00000000     -55.37361145
Ca       0.00000000       0.00000000       0.81515152       0.00000000       0.00000000      55.37361145
2
Properties=species:S:1:pos:R:3:forces:R:3 energy=29.114800423218337 pbc="F F F"
Ca       0.00000000       0.00000000       0.00000000       0.00000000       0.00000000     -44.24202728
Ca       0.00000000       0.00000000       0.87474747       0.00000000       0.00000000      44.24202728
2
Properties=species:S:1:pos:R:3:forces:R:3 energy=26.62757073053687 pbc="F F F"
Ca       0.00000000       0.00000000       0.00000000       0.00000000       0.00000000     -40.19363022
Ca       0.00000000       0.00000000       0.93434343       0.00000000       0.00000000      40.19363022
2
Properties=species:S:1:pos:R:3:forces:R:3 energy=24.2292084534386 pbc="F F F"
Ca       0.00000000       0.00000000       0.00000000       0.00000000       0.00000000     -40.90032196
Ca       0.00000000       0.00000000       0.99393939       0.00000000       0.00000000      40.90032196
2
Properties=species:S:1:pos:R:3:forces:R:3 energy=21.713771526691875 pbc="F F F"
Ca       0.00000000       0.00000000       0.00000000       0.00000000       0.00000000     -43.51609039
Ca       0.00000000       0.00000000       1.05353535       0.00000000       0.00000000      43.51609039
2
Properties=species:S:1:pos:R:3:forces:R:3 energy=19.068135547710764 pbc="F F F"
Ca       0.00000000       0.00000000       0.00000000       0.00000000       0.00000000     -44.97365952
Ca       0.00000000       0.00000000       1.11313131       0.00000000       0.00000000      44.97365952
2
Properties=species:S:1:pos:R:3:forces:R:3 energy=16.394273197821626 pbc="F F F"
Ca       0.00000000       0.00000000       0.00000000       0.00000000       0.00000000     -44.29759598
Ca       0.00000000       0.00000000       1.17272727       0.00000000       0.00000000      44.29759598
2
Properties=species:S:1:pos:R:3:forces:R:3 energy=13.856167948769087 pbc="F F F"
Ca       0.00000000       0.00000000       0.00000000       0.00000000       0.00000000     -40.30271530
Ca       0.00000000       0.00000000       1.23232323       0.00000000       0.00000000      40.30271530
2
Properties=species:S:1:pos:R:3:forces:R:3 energy=11.638648698177068 pbc="F F F"
Ca       0.00000000       0.00000000       0.00000000       0.00000000       0.00000000     -33.96695709
Ca       0.00000000       0.00000000       1.29191919       0.00000000       0.00000000      33.96695709
2
Properties=species:S:1:pos:R:3:forces:R:3 energy=9.794244945794292 pbc="F F F"
Ca       0.00000000       0.00000000       0.00000000       0.00000000       0.00000000     -28.22795677
Ca       0.00000000       0.00000000       1.35151515       0.00000000       0.00000000      28.22795677
2
Properties=species:S:1:pos:R:3:forces:R:3 energy=8.237338862586084 pbc="F F F"
Ca       0.00000000       0.00000000       0.00000000       0.00000000       0.00000000     -24.22695351
Ca       0.00000000       0.00000000       1.41111111       0.00000000       0.00000000      24.22695351
2
Properties=species:S:1:pos:R:3:forces:R:3 energy=6.903437484643061 pbc="F F F"
Ca       0.00000000       0.00000000       0.00000000       0.00000000       0.00000000     -20.41836739
Ca       0.00000000       0.00000000       1.47070707       0.00000000       0.00000000      20.41836739
2
Properties=species:S:1:pos:R:3:forces:R:3 energy=5.818055680723417 pbc="F F F"
Ca       0.00000000       0.00000000       0.00000000       0.00000000       0.00000000     -15.96984386
Ca       0.00000000       0.00000000       1.53030303       0.00000000       0.00000000      15.96984386
2
Properties=species:S:1:pos:R:3:forces:R:3 energy=4.994674907746086 pbc="F F F"
Ca       0.00000000       0.00000000       0.00000000       0.00000000       0.00000000     -11.73177719
Ca       0.00000000       0.00000000       1.58989899       0.00000000       0.00000000      11.73177719
2
Properties=species:S:1:pos:R:3:forces:R:3 energy=4.4122273736611035 pbc="F F F"
Ca       0.00000000       0.00000000       0.00000000       0.00000000       0.00000000      -7.89492702
Ca       0.00000000       0.00000000       1.64949495       0.00000000       0.00000000       7.89492702
2
Properties=species:S:1:pos:R:3:forces:R:3 energy=4.037312007363183 pbc="F F F"
Ca       0.00000000       0.00000000       0.00000000       0.00000000       0.00000000      -4.88389826
Ca       0.00000000       0.00000000       1.70909091       0.00000000       0.00000000       4.88389826
2
Properties=species:S:1:pos:R:3:forces:R:3 energy=3.8031486598356565 pbc="F F F"
Ca       0.00000000       0.00000000       0.00000000       0.00000000       0.00000000      -3.20024514
Ca       0.00000000       0.00000000       1.76868687       0.00000000       0.00000000       3.20024514
2
Properties=species:S:1:pos:R:3:forces:R:3 energy=3.6330705164514074 pbc="F F F"
Ca       0.00000000       0.00000000       0.00000000       0.00000000       0.00000000      -2.65365815
Ca       0.00000000       0.00000000       1.82828283       0.00000000       0.00000000       2.65365815
2
Properties=species:S:1:pos:R:3:forces:R:3 energy=3.4746885003412253 pbc="F F F"
Ca       0.00000000       0.00000000       0.00000000       0.00000000       0.00000000      -2.72715068
Ca       0.00000000       0.00000000       1.88787879       0.00000000       0.00000000       2.72715068
2
Properties=species:S:1:pos:R:3:forces:R:3 energy=3.302932364726692 pbc="F F F"
Ca       0.00000000       0.00000000       0.00000000       0.00000000       0.00000000      -3.06429529
Ca       0.00000000       0.00000000       1.94747475       0.00000000       0.00000000       3.06429529
2
Properties=species:S:1:pos:R:3:forces:R:3 energy=3.1072460960119335 pbc="F F F"
Ca       0.00000000       0.00000000       0.00000000       0.00000000       0.00000000      -3.51379800
Ca       0.00000000       0.00000000       2.00707071       0.00000000       0.00000000       3.51379800
2
Properties=species:S:1:pos:R:3:forces:R:3 energy=2.883687262265792 pbc="F F F"
Ca       0.00000000       0.00000000       0.00000000       0.00000000       0.00000000      -3.98455858
Ca       0.00000000       0.00000000       2.06666667       0.00000000       0.00000000       3.98455858
2
Properties=species:S:1:pos:R:3:forces:R:3 energy=2.6336533811722695 pbc="F F F"
Ca       0.00000000       0.00000000       0.00000000       0.00000000       0.00000000      -4.38918114
Ca       0.00000000       0.00000000       2.12626263       0.00000000       0.00000000       4.38918114
2
Properties=species:S:1:pos:R:3:forces:R:3 energy=2.362992367640608 pbc="F F F"
Ca       0.00000000       0.00000000       0.00000000       0.00000000       0.00000000      -4.67174625
Ca       0.00000000       0.00000000       2.18585859       0.00000000       0.00000000       4.67174625
2
Properties=species:S:1:pos:R:3:forces:R:3 energy=2.0794505773623198 pbc="F F F"
Ca       0.00000000       0.00000000       0.00000000       0.00000000       0.00000000      -4.82250404
Ca       0.00000000       0.00000000       2.24545455       0.00000000       0.00000000       4.82250404
2
Properties=species:S:1:pos:R:3:forces:R:3 energy=1.7905775388205807 pbc="F F F"
Ca       0.00000000       0.00000000       0.00000000       0.00000000       0.00000000      -4.85260916
Ca       0.00000000       0.00000000       2.30505051       0.00000000       0.00000000       4.85260916
2
Properties=species:S:1:pos:R:3:forces:R:3 energy=1.5033400751558568 pbc="F F F"
Ca       0.00000000       0.00000000       0.00000000       0.00000000       0.00000000      -4.76779175
Ca       0.00000000       0.00000000       2.36464646       0.00000000       0.00000000       4.76779175
2
Properties=species:S:1:pos:R:3:forces:R:3 energy=1.2245781708245331 pbc="F F F"
Ca       0.00000000       0.00000000       0.00000000       0.00000000       0.00000000      -4.56838083
Ca       0.00000000       0.00000000       2.42424242       0.00000000       0.00000000       4.56838083
2
Properties=species:S:1:pos:R:3:forces:R:3 energy=0.9609300978296896 pbc="F F F"
Ca       0.00000000       0.00000000       0.00000000       0.00000000       0.00000000      -4.26348972
Ca       0.00000000       0.00000000       2.48383838       0.00000000       0.00000000       4.26348972
2
Properties=species:S:1:pos:R:3:forces:R:3 energy=0.7180262999943708 pbc="F F F"
Ca       0.00000000       0.00000000       0.00000000       0.00000000       0.00000000      -3.87731814
Ca       0.00000000       0.00000000       2.54343434       0.00000000       0.00000000       3.87731814
2
Properties=species:S:1:pos:R:3:forces:R:3 energy=0.49973396086191396 pbc="F F F"
Ca       0.00000000       0.00000000       0.00000000       0.00000000       0.00000000      -3.44344687
Ca       0.00000000       0.00000000       2.60303030       0.00000000       0.00000000       3.44344687
2
Properties=species:S:1:pos:R:3:forces:R:3 energy=0.3078617668831837 pbc="F F F"
Ca       0.00000000       0.00000000       0.00000000       0.00000000       0.00000000      -2.99594116
Ca       0.00000000       0.00000000       2.66262626       0.00000000       0.00000000       2.99594116
2
Properties=species:S:1:pos:R:3:forces:R:3 energy=0.14233519646531306 pbc="F F F"
Ca       0.00000000       0.00000000       0.00000000       0.00000000       0.00000000      -2.56358433
Ca       0.00000000       0.00000000       2.72222222       0.00000000       0.00000000       2.56358433
2
Properties=species:S:1:pos:R:3:forces:R:3 energy=0.0015723079491222897 pbc="F F F"
Ca       0.00000000       0.00000000       0.00000000       0.00000000       0.00000000      -2.16779470
Ca       0.00000000       0.00000000       2.78181818       0.00000000       0.00000000       2.16779470
2
Properties=species:S:1:pos:R:3:forces:R:3 energy=-0.11705134594863835 pbc="F F F"
Ca       0.00000000       0.00000000       0.00000000       0.00000000       0.00000000      -1.82223523
Ca       0.00000000       0.00000000       2.84141414       0.00000000       0.00000000       1.82223523
2
Properties=species:S:1:pos:R:3:forces:R:3 energy=-0.2167452798470237 pbc="F F F"
Ca       0.00000000       0.00000000       0.00000000       0.00000000       0.00000000      -1.53294826
Ca       0.00000000       0.00000000       2.90101010       0.00000000       0.00000000       1.53294826
2
Properties=species:S:1:pos:R:3:forces:R:3 energy=-0.30086812155939885 pbc="F F F"
Ca       0.00000000       0.00000000       0.00000000       0.00000000       0.00000000      -1.29897594
Ca       0.00000000       0.00000000       2.96060606       0.00000000       0.00000000       1.29897594
2
Properties=species:S:1:pos:R:3:forces:R:3 energy=-0.3725430669050473 pbc="F F F"
Ca       0.00000000       0.00000000       0.00000000       0.00000000       0.00000000      -1.11365724
Ca       0.00000000       0.00000000       3.02020202       0.00000000       0.00000000       1.11365724
2
Properties=species:S:1:pos:R:3:forces:R:3 energy=-0.4343649854755801 pbc="F F F"
Ca       0.00000000       0.00000000       0.00000000       0.00000000       0.00000000      -0.96638161
Ca       0.00000000       0.00000000       3.07979798       0.00000000       0.00000000       0.96638161
2
Properties=species:S:1:pos:R:3:forces:R:3 energy=-0.4882341081729358 pbc="F F F"
Ca       0.00000000       0.00000000       0.00000000       0.00000000       0.00000000      -0.84463382
Ca       0.00000000       0.00000000       3.13939394       0.00000000       0.00000000       0.84463382
2
Properties=species:S:1:pos:R:3:forces:R:3 energy=-0.5353018935206357 pbc="F F F"
Ca       0.00000000       0.00000000       0.00000000       0.00000000       0.00000000      -0.73624873
Ca       0.00000000       0.00000000       3.19898990       0.00000000       0.00000000       0.73624873
2
Properties=species:S:1:pos:R:3:forces:R:3 energy=-0.5760614457860672 pbc="F F F"
Ca       0.00000000       0.00000000       0.00000000       0.00000000       0.00000000      -0.63165504
Ca       0.00000000       0.00000000       3.25858586       0.00000000       0.00000000       0.63165504
2
Properties=species:S:1:pos:R:3:forces:R:3 energy=-0.6105574371596274 pbc="F F F"
Ca       0.00000000       0.00000000       0.00000000       0.00000000       0.00000000      -0.52556509
Ca       0.00000000       0.00000000       3.31818182       0.00000000       0.00000000       0.52556509
2
Properties=species:S:1:pos:R:3:forces:R:3 energy=-0.6386614460315078 pbc="F F F"
Ca       0.00000000       0.00000000       0.00000000       0.00000000       0.00000000      -0.41742578
Ca       0.00000000       0.00000000       3.37777778       0.00000000       0.00000000       0.41742578
2
Properties=species:S:1:pos:R:3:forces:R:3 energy=-0.660332785289274 pbc="F F F"
Ca       0.00000000       0.00000000       0.00000000       0.00000000       0.00000000      -0.31043234
Ca       0.00000000       0.00000000       3.43737374       0.00000000       0.00000000       0.31043234
2
Properties=species:S:1:pos:R:3:forces:R:3 energy=-0.6757818613060982 pbc="F F F"
Ca       0.00000000       0.00000000       0.00000000       0.00000000       0.00000000      -0.20942286
Ca       0.00000000       0.00000000       3.49696970       0.00000000       0.00000000       0.20942286
2
Properties=species:S:1:pos:R:3:forces:R:3 energy=-0.685497384309352 pbc="F F F"
Ca       0.00000000       0.00000000       0.00000000       0.00000000       0.00000000      -0.11854810
Ca       0.00000000       0.00000000       3.55656566       0.00000000       0.00000000       0.11854810
2
Properties=species:S:1:pos:R:3:forces:R:3 energy=-0.690153108062912 pbc="F F F"
Ca       0.00000000       0.00000000       0.00000000       0.00000000       0.00000000      -0.03973433
Ca       0.00000000       0.00000000       3.61616162       0.00000000       0.00000000       0.03973433
2
Properties=species:S:1:pos:R:3:forces:R:3 energy=-0.690465810822988 pbc="F F F"
Ca       0.00000000       0.00000000       0.00000000       0.00000000       0.00000000       0.02740910
Ca       0.00000000       0.00000000       3.67575758       0.00000000       0.00000000      -0.02740910
2
Properties=species:S:1:pos:R:3:forces:R:3 energy=-0.6870885988025415 pbc="F F F"
Ca       0.00000000       0.00000000       0.00000000       0.00000000       0.00000000       0.08435555
Ca       0.00000000       0.00000000       3.73535354       0.00000000       0.00000000      -0.08435555
2
Properties=species:S:1:pos:R:3:forces:R:3 energy=-0.6805933515302431 pbc="F F F"
Ca       0.00000000       0.00000000       0.00000000       0.00000000       0.00000000       0.13209061
Ca       0.00000000       0.00000000       3.79494949       0.00000000       0.00000000      -0.13209061
2
Properties=species:S:1:pos:R:3:forces:R:3 energy=-0.6715313576394375 pbc="F F F"
Ca       0.00000000       0.00000000       0.00000000       0.00000000       0.00000000       0.17038305
Ca       0.00000000       0.00000000       3.85454545       0.00000000       0.00000000      -0.17038305
2
Properties=species:S:1:pos:R:3:forces:R:3 energy=-0.6604876091141364 pbc="F F F"
Ca       0.00000000       0.00000000       0.00000000       0.00000000       0.00000000       0.19852798
Ca       0.00000000       0.00000000       3.91414141       0.00000000       0.00000000      -0.19852798
2
Properties=species:S:1:pos:R:3:forces:R:3 energy=-0.6480557727270325 pbc="F F F"
Ca       0.00000000       0.00000000       0.00000000       0.00000000       0.00000000       0.21734004
Ca       0.00000000       0.00000000       3.97373737       0.00000000       0.00000000      -0.21734004
2
Properties=species:S:1:pos:R:3:forces:R:3 energy=-0.6346876855042032 pbc="F F F"
Ca       0.00000000       0.00000000       0.00000000       0.00000000       0.00000000       0.23095307
Ca       0.00000000       0.00000000       4.03333333       0.00000000       0.00000000      -0.23095307
2
Properties=species:S:1:pos:R:3:forces:R:3 energy=-0.6205011891333828 pbc="F F F"
Ca       0.00000000       0.00000000       0.00000000       0.00000000       0.00000000       0.24584486
Ca       0.00000000       0.00000000       4.09292929       0.00000000       0.00000000      -0.24584486
2
Properties=species:S:1:pos:R:3:forces:R:3 energy=-0.6052715612564878 pbc="F F F"
Ca       0.00000000       0.00000000       0.00000000       0.00000000       0.00000000       0.26622269
Ca       0.00000000       0.00000000       4.15252525       0.00000000       0.00000000      -0.26622269
2
Properties=species:S:1:pos:R:3:forces:R:3 energy=-0.5886895133649845 pbc="F F F"
Ca       0.00000000       0.00000000       0.00000000       0.00000000       0.00000000       0.29053247
Ca       0.00000000       0.00000000       4.21212121       0.00000000       0.00000000      -0.29053247
2
Properties=species:S:1:pos:R:3:forces:R:3 energy=-0.5706659870263611 pbc="F F F"
Ca       0.00000000       0.00000000       0.00000000       0.00000000       0.00000000       0.31369936
Ca       0.00000000       0.00000000       4.27171717       0.00000000       0.00000000      -0.31369936
2
Properties=species:S:1:pos:R:3:forces:R:3 energy=-0.5514029202644619 pbc="F F F"
Ca       0.00000000       0.00000000       0.00000000       0.00000000       0.00000000       0.33172998
Ca       0.00000000       0.00000000       4.33131313       0.00000000       0.00000000      -0.33172998
2
Properties=species:S:1:pos:R:3:forces:R:3 energy=-0.531251213875411 pbc="F F F"
Ca       0.00000000       0.00000000       0.00000000       0.00000000       0.00000000       0.34356382
Ca       0.00000000       0.00000000       4.39090909       0.00000000       0.00000000      -0.34356382
2
Properties=species:S:1:pos:R:3:forces:R:3 energy=-0.5105563406270628 pbc="F F F"
Ca       0.00000000       0.00000000       0.00000000       0.00000000       0.00000000       0.35019726
Ca       0.00000000       0.00000000       4.45050505       0.00000000       0.00000000      -0.35019726
2
Properties=species:S:1:pos:R:3:forces:R:3 energy=-0.48958105139678176 pbc="F F F"
Ca       0.00000000       0.00000000       0.00000000       0.00000000       0.00000000       0.35326511
Ca       0.00000000       0.00000000       4.51010101       0.00000000       0.00000000      -0.35326511
2
Properties=species:S:1:pos:R:3:forces:R:3 energy=-0.468493152059389 pbc="F F F"
Ca       0.00000000       0.00000000       0.00000000       0.00000000       0.00000000       0.35413522
Ca       0.00000000       0.00000000       4.56969697       0.00000000       0.00000000      -0.35413522
2
Properties=species:S:1:pos:R:3:forces:R:3 energy=-0.4473993085926097 pbc="F F F"
Ca       0.00000000       0.00000000       0.00000000       0.00000000       0.00000000       0.35353491
Ca       0.00000000       0.00000000       4.62929293       0.00000000       0.00000000      -0.35353491
2
Properties=species:S:1:pos:R:3:forces:R:3 energy=-0.4263830354042588 pbc="F F F"
Ca       0.00000000       0.00000000       0.00000000       0.00000000       0.00000000       0.35151756
Ca       0.00000000       0.00000000       4.68888889       0.00000000       0.00000000      -0.35151756
2
Properties=species:S:1:pos:R:3:forces:R:3 energy=-0.40553813282359297 pbc="F F F"
Ca       0.00000000       0.00000000       0.00000000       0.00000000       0.00000000       0.34764233
Ca       0.00000000       0.00000000       4.74848485       0.00000000       0.00000000      -0.34764233
2
Properties=species:S:1:pos:R:3:forces:R:3 energy=-0.3849955407588339 pbc="F F F"
Ca       0.00000000       0.00000000       0.00000000       0.00000000       0.00000000       0.34131882
Ca       0.00000000       0.00000000       4.80808081       0.00000000       0.00000000      -0.34131882
2
Properties=species:S:1:pos:R:3:forces:R:3 energy=-0.36491162025767854 pbc="F F F"
Ca       0.00000000       0.00000000       0.00000000       0.00000000       0.00000000       0.33220246
Ca       0.00000000       0.00000000       4.86767677       0.00000000       0.00000000      -0.33220246
2
Properties=species:S:1:pos:R:3:forces:R:3 energy=-0.345450080485128 pbc="F F F"
Ca       0.00000000       0.00000000       0.00000000       0.00000000       0.00000000       0.32054257
Ca       0.00000000       0.00000000       4.92727273       0.00000000       0.00000000      -0.32054257
2
Properties=species:S:1:pos:R:3:forces:R:3 energy=-0.3267369137526023 pbc="F F F"
Ca       0.00000000       0.00000000       0.00000000       0.00000000       0.00000000       0.30730823
Ca       0.00000000       0.00000000       4.98686869       0.00000000       0.00000000      -0.30730823
2
Properties=species:S:1:pos:R:3:forces:R:3 energy=-0.3088239397023064 pbc="F F F"
Ca       0.00000000       0.00000000       0.00000000       0.00000000       0.00000000       0.29402739
Ca       0.00000000       0.00000000       5.04646465       0.00000000       0.00000000      -0.29402739
2
Properties=species:S:1:pos:R:3:forces:R:3 energy=-0.29166205007738044 pbc="F F F"
Ca       0.00000000       0.00000000       0.00000000       0.00000000       0.00000000       0.28224790
Ca       0.00000000       0.00000000       5.10606061       0.00000000       0.00000000      -0.28224790
2
Properties=species:S:1:pos:R:3:forces:R:3 energy=-0.2751373708664183 pbc="F F F"
Ca       0.00000000       0.00000000       0.00000000       0.00000000       0.00000000       0.27252373
Ca       0.00000000       0.00000000       5.16565657       0.00000000       0.00000000      -0.27252373
2
Properties=species:S:1:pos:R:3:forces:R:3 energy=-0.25917233323407934 pbc="F F F"
Ca       0.00000000       0.00000000       0.00000000       0.00000000       0.00000000       0.26296955
Ca       0.00000000       0.00000000       5.22525253       0.00000000       0.00000000      -0.26296955
2
Properties=species:S:1:pos:R:3:forces:R:3 energy=-0.24388569709114868 pbc="F F F"
Ca       0.00000000       0.00000000       0.00000000       0.00000000       0.00000000       0.24887680
Ca       0.00000000       0.00000000       5.28484848       0.00000000       0.00000000      -0.24887680
2
Properties=species:S:1:pos:R:3:forces:R:3 energy=-0.2296504951268341 pbc="F F F"
Ca       0.00000000       0.00000000       0.00000000       0.00000000       0.00000000       0.22814471
Ca       0.00000000       0.00000000       5.34444444       0.00000000       0.00000000      -0.22814471
2
Properties=species:S:1:pos:R:3:forces:R:3 energy=-0.21660056630864405 pbc="F F F"
Ca       0.00000000       0.00000000       0.00000000       0.00000000       0.00000000       0.21237385
Ca       0.00000000       0.00000000       5.40404040       0.00000000       0.00000000      -0.21237385
2
Properties=species:S:1:pos:R:3:forces:R:3 energy=-0.20388704202179359 pbc="F F F"
Ca       0.00000000       0.00000000       0.00000000       0.00000000       0.00000000       0.21781099
Ca       0.00000000       0.00000000       5.46363636       0.00000000       0.00000000      -0.21781099
2
Properties=species:S:1:pos:R:3:forces:R:3 energy=-0.19050227151535065 pbc="F F F"
Ca       0.00000000       0.00000000       0.00000000       0.00000000       0.00000000       0.22968170
Ca       0.00000000       0.00000000       5.52323232       0.00000000       0.00000000      -0.22968170
2
Properties=species:S:1:pos:R:3:forces:R:3 energy=-0.17695757420433655 pbc="F F F"
Ca       0.00000000       0.00000000       0.00000000       0.00000000       0.00000000       0.22104438
Ca       0.00000000       0.00000000       5.58282828       0.00000000       0.00000000      -0.22104438
2
Properties=species:S:1:pos:R:3:forces:R:3 energy=-0.1643022008927128 pbc="F F F"
Ca       0.00000000       0.00000000       0.00000000       0.00000000       0.00000000       0.20616333
Ca       0.00000000       0.00000000       5.64242424       0.00000000       0.00000000      -0.20616333
2
Properties=species:S:1:pos:R:3:forces:R:3 energy=-0.1516509234806605 pbc="F F F"
Ca       0.00000000       0.00000000       0.00000000       0.00000000       0.00000000       0.22634006
Ca       0.00000000       0.00000000       5.70202020       0.00000000       0.00000000      -0.22634006
2
Properties=species:S:1:pos:R:3:forces:R:3 energy=-0.13667904261994945 pbc="F F F"
Ca       0.00000000       0.00000000       0.00000000       0.00000000       0.00000000       0.27598417
Ca       0.00000000       0.00000000       5.76161616       0.00000000       0.00000000      -0.27598417
2
Properties=species:S:1:pos:R:3:forces:R:3 energy=-0.11980727305819229 pbc="F F F"
Ca       0.00000000       0.00000000       0.00000000       0.00000000       0.00000000       0.27447236
Ca       0.00000000       0.00000000       5.82121212       0.00000000       0.00000000      -0.27447236
2
Properties=species:S:1:pos:R:3:forces:R:3 energy=-0.10580396910447601 pbc="F F F"
Ca       0.00000000       0.00000000       0.00000000       0.00000000       0.00000000       0.18628849
Ca       0.00000000       0.00000000       5.88080808       0.00000000       0.00000000      -0.18628849
2
Properties=species:S:1:pos:R:3:forces:R:3 energy=-0.09789479804166337 pbc="F F F"
Ca       0.00000000       0.00000000       0.00000000       0.00000000       0.00000000       0.08190986
Ca       0.00000000       0.00000000       5.94040404       0.00000000       0.00000000      -0.08190986
2
Properties=species:S:1:pos:R:3:forces:R:3 energy=-0.09476549515032996 pbc="F F F"
Ca       0.00000000       0.00000000       0.00000000       0.00000000       0.00000000       0.03754949
Ca       0.00000000       0.00000000       6.00000000       0.00000000       0.00000000      -0.03754949
