2
Properties=species:S:1:pos:R:3:forces:R:3 energy=8550.068511166148 pbc="F F F"
Cd       0.00000000       0.00000000       0.00000000       0.00000000       0.00000000 -135767.60937500
Cd       0.00000000       0.00000000       0.18000000       0.00000000       0.00000000  135767.60937500
2
Properties=species:S:1:pos:R:3:forces:R:3 energy=3720.3070365567737 pbc="F F F"
Cd       0.00000000       0.00000000       0.00000000       0.00000000       0.00000000  -46876.58593750
Cd       0.00000000       0.00000000       0.23878788       0.00000000       0.00000000   46876.58593750
2
Properties=species:S:1:pos:R:3:forces:R:3 energy=1921.3020316771288 pbc="F F F"
Cd       0.00000000       0.00000000       0.00000000       0.00000000       0.00000000  -19078.76562500
Cd       0.00000000       0.00000000       0.29757576       0.00000000       0.00000000   19078.76562500
2
Properties=species:S:1:pos:R:3:forces:R:3 energy=1153.2854301177967 pbc="F F F"
Cd       0.00000000       0.00000000       0.00000000       0.00000000       0.00000000   -8605.93652344
Cd       0.00000000       0.00000000       0.35636364       0.00000000       0.00000000    8605.93652344
2
Properties=species:S:1:pos:R:3:forces:R:3 energy=795.1051322725698 pbc="F F F"
Cd       0.00000000       0.00000000       0.00000000       0.00000000       0.00000000   -4174.20166016
Cd       0.00000000       0.00000000       0.41515152       0.00000000       0.00000000    4174.20166016
2
Properties=species:S:1:pos:R:3:forces:R:3 energy=616.5454399087643 pbc="F F F"
Cd       0.00000000       0.00000000       0.00000000       0.00000000       0.00000000   -2152.28735352
Cd       0.00000000       0.00000000       0.47393939       0.00000000       0.00000000    2152.28735352
2
Properties=species:S:1:pos:R:3:forces:R:3 energy=521.87686083888 pbc="F F F"
Cd       0.00000000       0.00000000       0.00000000       0.00000000       0.00000000   -1183.23034668
Cd       0.00000000       0.00000000       0.53272727       0.00000000       0.00000000    1183.23034668
2
Properties=species:S:1:pos:R:3:forces:R:3 energy=467.94717338956514 pbc="F F F"
Cd       0.00000000       0.00000000       0.00000000       0.00000000       0.00000000    -707.40600586
Cd       0.00000000       0.00000000       0.59151515       0.00000000       0.00000000     707.40600586
2
Properties=species:S:1:pos:R:3:forces:R:3 energy=433.90905702318605 pbc="F F F"
Cd       0.00000000       0.00000000       0.00000000       0.00000000       0.00000000    -480.36175537
Cd       0.00000000       0.00000000       0.65030303       0.00000000       0.00000000     480.36175537
2
Properties=species:S:1:pos:R:3:forces:R:3 energy=408.90383865671083 pbc="F F F"
Cd       0.00000000       0.00000000       0.00000000       0.00000000       0.00000000    -383.80407715
Cd       0.00000000       0.00000000       0.70909091       0.00000000       0.00000000     383.80407715
2
Properties=species:S:1:pos:R:3:forces:R:3 energy=386.7747189927402 pbc="F F F"
Cd       0.00000000       0.00000000       0.00000000       0.00000000       0.00000000    -369.85729980
Cd       0.00000000       0.00000000       0.76787879       0.00000000       0.00000000     369.85729980
2
Properties=species:S:1:pos:R:3:forces:R:3 energy=364.7377625160774 pbc="F F F"
Cd       0.00000000       0.00000000       0.00000000       0.00000000       0.00000000    -392.16549683
Cd       0.00000000       0.00000000       0.82666667       0.00000000       0.00000000     392.16549683
2
Properties=species:S:1:pos:R:3:forces:R:3 energy=338.96438648839313 pbc="F F F"
Cd       0.00000000       0.00000000       0.00000000       0.00000000       0.00000000    -497.17239380
Cd       0.00000000       0.00000000       0.88545455       0.00000000       0.00000000     497.17239380
2
Properties=species:S:1:pos:R:3:forces:R:3 energy=306.0580760772978 pbc="F F F"
Cd       0.00000000       0.00000000       0.00000000       0.00000000       0.00000000    -614.18164062
Cd       0.00000000       0.00000000       0.94424242       0.00000000       0.00000000     614.18164062
2
Properties=species:S:1:pos:R:3:forces:R:3 energy=267.8765278603442 pbc="F F F"
Cd       0.00000000       0.00000000       0.00000000       0.00000000       0.00000000    -676.59411621
Cd       0.00000000       0.00000000       1.00303030       0.00000000       0.00000000     676.59411621
2
Properties=species:S:1:pos:R:3:forces:R:3 energy=227.40002754541987 pbc="F F F"
Cd       0.00000000       0.00000000       0.00000000       0.00000000       0.00000000    -692.96972656
Cd       0.00000000       0.00000000       1.06181818       0.00000000       0.00000000     692.96972656
2
Properties=species:S:1:pos:R:3:forces:R:3 energy=187.2017411147786 pbc="F F F"
Cd       0.00000000       0.00000000       0.00000000       0.00000000       0.00000000    -668.42388916
Cd       0.00000000       0.00000000       1.12060606       0.00000000       0.00000000     668.42388916
2
Properties=species:S:1:pos:R:3:forces:R:3 energy=149.67624568031877 pbc="F F F"
Cd       0.00000000       0.00000000       0.00000000       0.00000000       0.00000000    -598.46520996
Cd       0.00000000       0.00000000       1.17939394       0.00000000       0.00000000     598.46520996
2
Properties=species:S:1:pos:R:3:forces:R:3 energy=117.89410563243713 pbc="F F F"
Cd       0.00000000       0.00000000       0.00000000       0.00000000       0.00000000    -480.00363159
Cd       0.00000000       0.00000000       1.23818182       0.00000000       0.00000000     480.00363159
2
Properties=species:S:1:pos:R:3:forces:R:3 energy=92.52599065984629 pbc="F F F"
Cd       0.00000000       0.00000000       0.00000000       0.00000000       0.00000000    -392.56765747
Cd       0.00000000       0.00000000       1.29696970       0.00000000       0.00000000     392.56765747
2
Properties=species:S:1:pos:R:3:forces:R:3 energy=71.11652524955062 pbc="F F F"
Cd       0.00000000       0.00000000       0.00000000       0.00000000       0.00000000    -336.63290405
Cd       0.00000000       0.00000000       1.35575758       0.00000000       0.00000000     336.63290405
2
Properties=species:S:1:pos:R:3:forces:R:3 energy=53.023028457122 pbc="F F F"
Cd       0.00000000       0.00000000       0.00000000       0.00000000       0.00000000    -277.98568726
Cd       0.00000000       0.00000000       1.41454545       0.00000000       0.00000000     277.98568726
2
Properties=species:S:1:pos:R:3:forces:R:3 energy=38.546281744804524 pbc="F F F"
Cd       0.00000000       0.00000000       0.00000000       0.00000000       0.00000000    -213.89894104
Cd       0.00000000       0.00000000       1.47333333       0.00000000       0.00000000     213.89894104
2
Properties=species:S:1:pos:R:3:forces:R:3 energy=27.73975978912566 pbc="F F F"
Cd       0.00000000       0.00000000       0.00000000       0.00000000       0.00000000    -156.78198242
Cd       0.00000000       0.00000000       1.53212121       0.00000000       0.00000000     156.78198242
2
Properties=species:S:1:pos:R:3:forces:R:3 energy=19.77407518821973 pbc="F F F"
Cd       0.00000000       0.00000000       0.00000000       0.00000000       0.00000000    -115.68269348
Cd       0.00000000       0.00000000       1.59090909       0.00000000       0.00000000     115.68269348
2
Properties=species:S:1:pos:R:3:forces:R:3 energy=14.039020704358544 pbc="F F F"
Cd       0.00000000       0.00000000       0.00000000       0.00000000       0.00000000     -80.77440643
Cd       0.00000000       0.00000000       1.64969697       0.00000000       0.00000000      80.77440643
2
Properties=species:S:1:pos:R:3:forces:R:3 energy=10.07999635183506 pbc="F F F"
Cd       0.00000000       0.00000000       0.00000000       0.00000000       0.00000000     -55.17555237
Cd       0.00000000       0.00000000       1.70848485       0.00000000       0.00000000      55.17555237
2
Properties=species:S:1:pos:R:3:forces:R:3 energy=7.459212107455125 pbc="F F F"
Cd       0.00000000       0.00000000       0.00000000       0.00000000       0.00000000     -34.77611160
Cd       0.00000000       0.00000000       1.76727273       0.00000000       0.00000000      34.77611160
2
Properties=species:S:1:pos:R:3:forces:R:3 energy=5.858954632876534 pbc="F F F"
Cd       0.00000000       0.00000000       0.00000000       0.00000000       0.00000000     -20.97904587
Cd       0.00000000       0.00000000       1.82606061       0.00000000       0.00000000      20.97904587
2
Properties=species:S:1:pos:R:3:forces:R:3 energy=4.853596129301374 pbc="F F F"
Cd       0.00000000       0.00000000       0.00000000       0.00000000       0.00000000     -14.15063095
Cd       0.00000000       0.00000000       1.88484848       0.00000000       0.00000000      14.15063095
2
Properties=species:S:1:pos:R:3:forces:R:3 energy=4.119487469064887 pbc="F F F"
Cd       0.00000000       0.00000000       0.00000000       0.00000000       0.00000000     -11.22693157
Cd       0.00000000       0.00000000       1.94363636       0.00000000       0.00000000      11.22693157
2
Properties=species:S:1:pos:R:3:forces:R:3 energy=3.5051905046295224 pbc="F F F"
Cd       0.00000000       0.00000000       0.00000000       0.00000000       0.00000000      -9.79926205
Cd       0.00000000       0.00000000       2.00242424       0.00000000       0.00000000       9.79926205
2
Properties=species:S:1:pos:R:3:forces:R:3 energy=2.959636616411649 pbc="F F F"
Cd       0.00000000       0.00000000       0.00000000       0.00000000       0.00000000      -8.78751469
Cd       0.00000000       0.00000000       2.06121212       0.00000000       0.00000000       8.78751469
2
Properties=species:S:1:pos:R:3:forces:R:3 energy=2.470842340256226 pbc="F F F"
Cd       0.00000000       0.00000000       0.00000000       0.00000000       0.00000000      -7.84275007
Cd       0.00000000       0.00000000       2.12000000       0.00000000       0.00000000       7.84275007
2
Properties=species:S:1:pos:R:3:forces:R:3 energy=2.037590433259139 pbc="F F F"
Cd       0.00000000       0.00000000       0.00000000       0.00000000       0.00000000      -6.89641905
Cd       0.00000000       0.00000000       2.17878788       0.00000000       0.00000000       6.89641905
2
Properties=species:S:1:pos:R:3:forces:R:3 energy=1.6598205219702635 pbc="F F F"
Cd       0.00000000       0.00000000       0.00000000       0.00000000       0.00000000      -5.95894670
Cd       0.00000000       0.00000000       2.23757576       0.00000000       0.00000000       5.95894670
2
Properties=species:S:1:pos:R:3:forces:R:3 energy=1.3363240262131013 pbc="F F F"
Cd       0.00000000       0.00000000       0.00000000       0.00000000       0.00000000      -5.05408382
Cd       0.00000000       0.00000000       2.29636364       0.00000000       0.00000000       5.05408382
2
Properties=species:S:1:pos:R:3:forces:R:3 energy=1.064467400119686 pbc="F F F"
Cd       0.00000000       0.00000000       0.00000000       0.00000000       0.00000000      -4.20624495
Cd       0.00000000       0.00000000       2.35515152       0.00000000       0.00000000       4.20624495
2
Properties=species:S:1:pos:R:3:forces:R:3 energy=0.8401949061901066 pbc="F F F"
Cd       0.00000000       0.00000000       0.00000000       0.00000000       0.00000000      -3.43874693
Cd       0.00000000       0.00000000       2.41393939       0.00000000       0.00000000       3.43874693
2
Properties=species:S:1:pos:R:3:forces:R:3 energy=0.6582103681729572 pbc="F F F"
Cd       0.00000000       0.00000000       0.00000000       0.00000000       0.00000000      -2.77005577
Cd       0.00000000       0.00000000       2.47272727       0.00000000       0.00000000       2.77005577
2
Properties=species:S:1:pos:R:3:forces:R:3 energy=0.5123770794414203 pbc="F F F"
Cd       0.00000000       0.00000000       0.00000000       0.00000000       0.00000000      -2.20951700
Cd       0.00000000       0.00000000       2.53151515       0.00000000       0.00000000       2.20951700
2
Properties=species:S:1:pos:R:3:forces:R:3 energy=0.396320567390115 pbc="F F F"
Cd       0.00000000       0.00000000       0.00000000       0.00000000       0.00000000      -1.75609779
Cd       0.00000000       0.00000000       2.59030303       0.00000000       0.00000000       1.75609779
2
Properties=species:S:1:pos:R:3:forces:R:3 energy=0.30398463830200895 pbc="F F F"
Cd       0.00000000       0.00000000       0.00000000       0.00000000       0.00000000      -1.40039885
Cd       0.00000000       0.00000000       2.64909091       0.00000000       0.00000000       1.40039885
2
Properties=species:S:1:pos:R:3:forces:R:3 energy=0.23003177046983764 pbc="F F F"
Cd       0.00000000       0.00000000       0.00000000       0.00000000       0.00000000      -1.12808621
Cd       0.00000000       0.00000000       2.70787879       0.00000000       0.00000000       1.12808621
2
Properties=species:S:1:pos:R:3:forces:R:3 energy=0.1700373846932453 pbc="F F F"
Cd       0.00000000       0.00000000       0.00000000       0.00000000       0.00000000      -0.92268401
Cd       0.00000000       0.00000000       2.76666667       0.00000000       0.00000000       0.92268401
2
Properties=species:S:1:pos:R:3:forces:R:3 energy=0.1205766657850029 pbc="F F F"
Cd       0.00000000       0.00000000       0.00000000       0.00000000       0.00000000      -0.76672643
Cd       0.00000000       0.00000000       2.82545455       0.00000000       0.00000000       0.76672643
2
Properties=species:S:1:pos:R:3:forces:R:3 energy=0.07927464319243796 pbc="F F F"
Cd       0.00000000       0.00000000       0.00000000       0.00000000       0.00000000      -0.64216870
Cd       0.00000000       0.00000000       2.88424242       0.00000000       0.00000000       0.64216870
2
Properties=species:S:1:pos:R:3:forces:R:3 energy=0.04477104023407248 pbc="F F F"
Cd       0.00000000       0.00000000       0.00000000       0.00000000       0.00000000      -0.53337824
Cd       0.00000000       0.00000000       2.94303030       0.00000000       0.00000000       0.53337824
2
Properties=species:S:1:pos:R:3:forces:R:3 energy=0.016398821642179484 pbc="F F F"
Cd       0.00000000       0.00000000       0.00000000       0.00000000       0.00000000      -0.43326724
Cd       0.00000000       0.00000000       3.00181818       0.00000000       0.00000000       0.43326724
2
Properties=species:S:1:pos:R:3:forces:R:3 energy=-0.0063755911145155705 pbc="F F F"
Cd       0.00000000       0.00000000       0.00000000       0.00000000       0.00000000      -0.34359092
Cd       0.00000000       0.00000000       3.06060606       0.00000000       0.00000000       0.34359092
2
Properties=species:S:1:pos:R:3:forces:R:3 energy=-0.02425509639507091 pbc="F F F"
Cd       0.00000000       0.00000000       0.00000000       0.00000000       0.00000000      -0.26685584
Cd       0.00000000       0.00000000       3.11939394       0.00000000       0.00000000       0.26685584
2
Properties=species:S:1:pos:R:3:forces:R:3 energy=-0.03799251401814412 pbc="F F F"
Cd       0.00000000       0.00000000       0.00000000       0.00000000       0.00000000      -0.20240630
Cd       0.00000000       0.00000000       3.17818182       0.00000000       0.00000000       0.20240630
2
Properties=species:S:1:pos:R:3:forces:R:3 energy=-0.04826400942295229 pbc="F F F"
Cd       0.00000000       0.00000000       0.00000000       0.00000000       0.00000000      -0.14874491
Cd       0.00000000       0.00000000       3.23696970       0.00000000       0.00000000       0.14874491
2
Properties=species:S:1:pos:R:3:forces:R:3 energy=-0.05567727094868056 pbc="F F F"
Cd       0.00000000       0.00000000       0.00000000       0.00000000       0.00000000      -0.10507200
Cd       0.00000000       0.00000000       3.29575758       0.00000000       0.00000000       0.10507200
2
Properties=species:S:1:pos:R:3:forces:R:3 energy=-0.06080186821450789 pbc="F F F"
Cd       0.00000000       0.00000000       0.00000000       0.00000000       0.00000000      -0.07076801
Cd       0.00000000       0.00000000       3.35454545       0.00000000       0.00000000       0.07076801
2
Properties=species:S:1:pos:R:3:forces:R:3 energy=-0.06415831349400382 pbc="F F F"
Cd       0.00000000       0.00000000       0.00000000       0.00000000       0.00000000      -0.04465801
Cd       0.00000000       0.00000000       3.41333333       0.00000000       0.00000000       0.04465801
2
Properties=species:S:1:pos:R:3:forces:R:3 energy=-0.06617824681945844 pbc="F F F"
Cd       0.00000000       0.00000000       0.00000000       0.00000000       0.00000000      -0.02494416
Cd       0.00000000       0.00000000       3.47212121       0.00000000       0.00000000       0.02494416
2
Properties=species:S:1:pos:R:3:forces:R:3 energy=-0.06717767381126259 pbc="F F F"
Cd       0.00000000       0.00000000       0.00000000       0.00000000       0.00000000      -0.00964604
Cd       0.00000000       0.00000000       3.53090909       0.00000000       0.00000000       0.00964604
2
Properties=species:S:1:pos:R:3:forces:R:3 energy=-0.06736608260779281 pbc="F F F"
Cd       0.00000000       0.00000000       0.00000000       0.00000000       0.00000000       0.00288431
Cd       0.00000000       0.00000000       3.58969697       0.00000000       0.00000000      -0.00288431
2
Properties=species:S:1:pos:R:3:forces:R:3 energy=-0.06687230163827462 pbc="F F F"
Cd       0.00000000       0.00000000       0.00000000       0.00000000       0.00000000       0.01368055
Cd       0.00000000       0.00000000       3.64848485       0.00000000       0.00000000      -0.01368055
2
Properties=species:S:1:pos:R:3:forces:R:3 energy=-0.06578289856555483 pbc="F F F"
Cd       0.00000000       0.00000000       0.00000000       0.00000000       0.00000000       0.02317762
Cd       0.00000000       0.00000000       3.70727273       0.00000000       0.00000000      -0.02317762
2
Properties=species:S:1:pos:R:3:forces:R:3 energy=-0.06417196850142562 pbc="F F F"
Cd       0.00000000       0.00000000       0.00000000       0.00000000       0.00000000       0.03140008
Cd       0.00000000       0.00000000       3.76606061       0.00000000       0.00000000      -0.03140008
2
Properties=species:S:1:pos:R:3:forces:R:3 energy=-0.06211904945863014 pbc="F F F"
Cd       0.00000000       0.00000000       0.00000000       0.00000000       0.00000000       0.03817860
Cd       0.00000000       0.00000000       3.82484848       0.00000000       0.00000000      -0.03817860
2
Properties=species:S:1:pos:R:3:forces:R:3 energy=-0.05971564619454248 pbc="F F F"
Cd       0.00000000       0.00000000       0.00000000       0.00000000       0.00000000       0.04330492
Cd       0.00000000       0.00000000       3.88363636       0.00000000       0.00000000      -0.04330492
2
Properties=species:S:1:pos:R:3:forces:R:3 energy=-0.0570633639116833 pbc="F F F"
Cd       0.00000000       0.00000000       0.00000000       0.00000000       0.00000000       0.04661101
Cd       0.00000000       0.00000000       3.94242424       0.00000000       0.00000000      -0.04661101
2
Properties=species:S:1:pos:R:3:forces:R:3 energy=-0.05427280228662542 pbc="F F F"
Cd       0.00000000       0.00000000       0.00000000       0.00000000       0.00000000       0.04800131
Cd       0.00000000       0.00000000       4.00121212       0.00000000       0.00000000      -0.04800131
2
Properties=species:S:1:pos:R:3:forces:R:3 energy=-0.05145728628436593 pbc="F F F"
Cd       0.00000000       0.00000000       0.00000000       0.00000000       0.00000000       0.04746631
Cd       0.00000000       0.00000000       4.06000000       0.00000000       0.00000000      -0.04746631
2
Properties=species:S:1:pos:R:3:forces:R:3 energy=-0.04872781174011582 pbc="F F F"
Cd       0.00000000       0.00000000       0.00000000       0.00000000       0.00000000       0.04509947
Cd       0.00000000       0.00000000       4.11878788       0.00000000       0.00000000      -0.04509947
2
Properties=species:S:1:pos:R:3:forces:R:3 energy=-0.046186391314073275 pbc="F F F"
Cd       0.00000000       0.00000000       0.00000000       0.00000000       0.00000000       0.04111520
Cd       0.00000000       0.00000000       4.17757576       0.00000000       0.00000000      -0.04111520
2
Properties=species:S:1:pos:R:3:forces:R:3 energy=-0.04391873690634124 pbc="F F F"
Cd       0.00000000       0.00000000       0.00000000       0.00000000       0.00000000       0.03585780
Cd       0.00000000       0.00000000       4.23636364       0.00000000       0.00000000      -0.03585780
2
Properties=species:S:1:pos:R:3:forces:R:3 energy=-0.04198647540633831 pbc="F F F"
Cd       0.00000000       0.00000000       0.00000000       0.00000000       0.00000000       0.02978850
Cd       0.00000000       0.00000000       4.29515152       0.00000000       0.00000000      -0.02978850
2
Properties=species:S:1:pos:R:3:forces:R:3 energy=-0.040421787783310736 pbc="F F F"
Cd       0.00000000       0.00000000       0.00000000       0.00000000       0.00000000       0.02344129
Cd       0.00000000       0.00000000       4.35393939       0.00000000       0.00000000      -0.02344129
2
Properties=species:S:1:pos:R:3:forces:R:3 energy=-0.03922517530153942 pbc="F F F"
Cd       0.00000000       0.00000000       0.00000000       0.00000000       0.00000000       0.01735104
Cd       0.00000000       0.00000000       4.41272727       0.00000000       0.00000000      -0.01735104
2
Properties=species:S:1:pos:R:3:forces:R:3 energy=-0.03836777684114632 pbc="F F F"
Cd       0.00000000       0.00000000       0.00000000       0.00000000       0.00000000       0.01196911
Cd       0.00000000       0.00000000       4.47151515       0.00000000       0.00000000      -0.01196911
2
Properties=species:S:1:pos:R:3:forces:R:3 energy=-0.03779820116471095 pbc="F F F"
Cd       0.00000000       0.00000000       0.00000000       0.00000000       0.00000000       0.00759037
Cd       0.00000000       0.00000000       4.53030303       0.00000000       0.00000000      -0.00759037
2
Properties=species:S:1:pos:R:3:forces:R:3 energy=-0.037453593803543656 pbc="F F F"
Cd       0.00000000       0.00000000       0.00000000       0.00000000       0.00000000       0.00431146
Cd       0.00000000       0.00000000       4.58909091       0.00000000       0.00000000      -0.00431146
2
Properties=species:S:1:pos:R:3:forces:R:3 energy=-0.03727149760777915 pbc="F F F"
Cd       0.00000000       0.00000000       0.00000000       0.00000000       0.00000000       0.00203483
Cd       0.00000000       0.00000000       4.64787879       0.00000000       0.00000000      -0.00203483
2
Properties=species:S:1:pos:R:3:forces:R:3 energy=-0.03719943933420849 pbc="F F F"
Cd       0.00000000       0.00000000       0.00000000       0.00000000       0.00000000       0.00051977
Cd       0.00000000       0.00000000       4.70666667       0.00000000       0.00000000      -0.00051977
2
Properties=species:S:1:pos:R:3:forces:R:3 energy=-0.0372014019841992 pbc="F F F"
Cd       0.00000000       0.00000000       0.00000000       0.00000000       0.00000000      -0.00053705
Cd       0.00000000       0.00000000       4.76545455       0.00000000       0.00000000       0.00053705
2
Properties=species:S:1:pos:R:3:forces:R:3 energy=-0.03725900438903496 pbc="F F F"
Cd       0.00000000       0.00000000       0.00000000       0.00000000       0.00000000      -0.00140744
Cd       0.00000000       0.00000000       4.82424242       0.00000000       0.00000000       0.00140744
2
Properties=species:S:1:pos:R:3:forces:R:3 energy=-0.03736640119237664 pbc="F F F"
Cd       0.00000000       0.00000000       0.00000000       0.00000000       0.00000000      -0.00225281
Cd       0.00000000       0.00000000       4.88303030       0.00000000       0.00000000       0.00225281
2
Properties=species:S:1:pos:R:3:forces:R:3 energy=-0.0375236970746019 pbc="F F F"
Cd       0.00000000       0.00000000       0.00000000       0.00000000       0.00000000      -0.00308207
Cd       0.00000000       0.00000000       4.94181818       0.00000000       0.00000000       0.00308207
2
Properties=species:S:1:pos:R:3:forces:R:3 energy=-0.03772609417247143 pbc="F F F"
Cd       0.00000000       0.00000000       0.00000000       0.00000000       0.00000000      -0.00376954
Cd       0.00000000       0.00000000       5.00060606       0.00000000       0.00000000       0.00376954
2
Properties=species:S:1:pos:R:3:forces:R:3 energy=-0.037960506652957686 pbc="F F F"
Cd       0.00000000       0.00000000       0.00000000       0.00000000       0.00000000      -0.00412936
Cd       0.00000000       0.00000000       5.05939394       0.00000000       0.00000000       0.00412936
2
Properties=species:S:1:pos:R:3:forces:R:3 energy=-0.0382026315002532 pbc="F F F"
Cd       0.00000000       0.00000000       0.00000000       0.00000000       0.00000000      -0.00403239
Cd       0.00000000       0.00000000       5.11818182       0.00000000       0.00000000       0.00403239
2
Properties=species:S:1:pos:R:3:forces:R:3 energy=-0.0384261533740054 pbc="F F F"
Cd       0.00000000       0.00000000       0.00000000       0.00000000       0.00000000      -0.00351653
Cd       0.00000000       0.00000000       5.17696970       0.00000000       0.00000000       0.00351653
2
Properties=species:S:1:pos:R:3:forces:R:3 energy=-0.03861238681530717 pbc="F F F"
Cd       0.00000000       0.00000000       0.00000000       0.00000000       0.00000000      -0.00281710
Cd       0.00000000       0.00000000       5.23575758       0.00000000       0.00000000       0.00281710
2
Properties=species:S:1:pos:R:3:forces:R:3 energy=-0.03875910125591929 pbc="F F F"
Cd       0.00000000       0.00000000       0.00000000       0.00000000       0.00000000      -0.00219139
Cd       0.00000000       0.00000000       5.29454545       0.00000000       0.00000000       0.00219139
2
Properties=species:S:1:pos:R:3:forces:R:3 energy=-0.03886812229198393 pbc="F F F"
Cd       0.00000000       0.00000000       0.00000000       0.00000000       0.00000000      -0.00143194
Cd       0.00000000       0.00000000       5.35333333       0.00000000       0.00000000       0.00143194
2
Properties=species:S:1:pos:R:3:forces:R:3 energy=-0.038906543213728204 pbc="F F F"
Cd       0.00000000       0.00000000       0.00000000       0.00000000       0.00000000       0.00036642
Cd       0.00000000       0.00000000       5.41212121       0.00000000       0.00000000      -0.00036642
2
Properties=species:S:1:pos:R:3:forces:R:3 energy=-0.03880358609441424 pbc="F F F"
Cd       0.00000000       0.00000000       0.00000000       0.00000000       0.00000000       0.00313848
Cd       0.00000000       0.00000000       5.47090909       0.00000000       0.00000000      -0.00313848
2
Properties=species:S:1:pos:R:3:forces:R:3 energy=-0.03856956300736552 pbc="F F F"
Cd       0.00000000       0.00000000       0.00000000       0.00000000       0.00000000       0.00434531
Cd       0.00000000       0.00000000       5.52969697       0.00000000       0.00000000      -0.00434531
2
Properties=species:S:1:pos:R:3:forces:R:3 energy=-0.03834647582114259 pbc="F F F"
Cd       0.00000000       0.00000000       0.00000000       0.00000000       0.00000000       0.00296368
Cd       0.00000000       0.00000000       5.58848485       0.00000000       0.00000000      -0.00296368
2
Properties=species:S:1:pos:R:3:forces:R:3 energy=-0.03821882882715341 pbc="F F F"
Cd       0.00000000       0.00000000       0.00000000       0.00000000       0.00000000       0.00167921
Cd       0.00000000       0.00000000       5.64727273       0.00000000       0.00000000      -0.00167921
2
Properties=species:S:1:pos:R:3:forces:R:3 energy=-0.03808920313224304 pbc="F F F"
Cd       0.00000000       0.00000000       0.00000000       0.00000000       0.00000000       0.00331457
Cd       0.00000000       0.00000000       5.70606061       0.00000000       0.00000000      -0.00331457
2
Properties=species:S:1:pos:R:3:forces:R:3 energy=-0.037782232413265726 pbc="F F F"
Cd       0.00000000       0.00000000       0.00000000       0.00000000       0.00000000       0.00724483
Cd       0.00000000       0.00000000       5.76484848       0.00000000       0.00000000      -0.00724483
2
Properties=species:S:1:pos:R:3:forces:R:3 energy=-0.037265959020657984 pbc="F F F"
Cd       0.00000000       0.00000000       0.00000000       0.00000000       0.00000000       0.00986057
Cd       0.00000000       0.00000000       5.82363636       0.00000000       0.00000000      -0.00986057
2
Properties=species:S:1:pos:R:3:forces:R:3 energy=-0.036676489723785594 pbc="F F F"
Cd       0.00000000       0.00000000       0.00000000       0.00000000       0.00000000       0.00985913
Cd       0.00000000       0.00000000       5.88242424       0.00000000       0.00000000      -0.00985913
2
Properties=species:S:1:pos:R:3:forces:R:3 energy=-0.03612745290360735 pbc="F F F"
Cd       0.00000000       0.00000000       0.00000000       0.00000000       0.00000000       0.00877802
Cd       0.00000000       0.00000000       5.94121212       0.00000000       0.00000000      -0.00877802
2
Properties=species:S:1:pos:R:3:forces:R:3 energy=-0.035638216579875565 pbc="F F F"
Cd       0.00000000       0.00000000       0.00000000       0.00000000       0.00000000       0.00797041
Cd       0.00000000       0.00000000       6.00000000       0.00000000       0.00000000      -0.00797041
