2
Properties=species:S:1:pos:R:3:forces:R:3 energy=39981.77456585365 pbc="F F F"
Cd       0.00000000       0.00000000       0.00000000       0.00000000       0.00000000 -950924.31250000
Cd       0.00000000       0.00000000       0.10000000       0.00000000       0.00000000  950924.31250000
2
Properties=species:S:1:pos:R:3:forces:R:3 energy=11994.588042416148 pbc="F F F"
Cd       0.00000000       0.00000000       0.00000000       0.00000000       0.00000000 -208012.23437500
Cd       0.00000000       0.00000000       0.15959596       0.00000000       0.00000000  208012.23437500
2
Properties=species:S:1:pos:R:3:forces:R:3 energy=4807.924956478649 pbc="F F F"
Cd       0.00000000       0.00000000       0.00000000       0.00000000       0.00000000  -65325.79296875
Cd       0.00000000       0.00000000       0.21919192       0.00000000       0.00000000   65325.79296875
2
Properties=species:S:1:pos:R:3:forces:R:3 energy=2333.2835990599415 pbc="F F F"
Cd       0.00000000       0.00000000       0.00000000       0.00000000       0.00000000  -25091.68750000
Cd       0.00000000       0.00000000       0.27878788       0.00000000       0.00000000   25091.68750000
2
Properties=species:S:1:pos:R:3:forces:R:3 energy=1327.5952445709217 pbc="F F F"
Cd       0.00000000       0.00000000       0.00000000       0.00000000       0.00000000  -10883.87890625
Cd       0.00000000       0.00000000       0.33838384       0.00000000       0.00000000   10883.87890625
2
Properties=species:S:1:pos:R:3:forces:R:3 energy=874.6158134249135 pbc="F F F"
Cd       0.00000000       0.00000000       0.00000000       0.00000000       0.00000000   -5122.86767578
Cd       0.00000000       0.00000000       0.39797980       0.00000000       0.00000000    5122.86767578
2
Properties=species:S:1:pos:R:3:forces:R:3 energy=655.0849296485223 pbc="F F F"
Cd       0.00000000       0.00000000       0.00000000       0.00000000       0.00000000   -2572.46484375
Cd       0.00000000       0.00000000       0.45757576       0.00000000       0.00000000    2572.46484375
2
Properties=species:S:1:pos:R:3:forces:R:3 energy=541.7392875840212 pbc="F F F"
Cd       0.00000000       0.00000000       0.00000000       0.00000000       0.00000000   -1376.52453613
Cd       0.00000000       0.00000000       0.51717172       0.00000000       0.00000000    1376.52453613
2
Properties=species:S:1:pos:R:3:forces:R:3 energy=479.0200188358782 pbc="F F F"
Cd       0.00000000       0.00000000       0.00000000       0.00000000       0.00000000    -797.00408936
Cd       0.00000000       0.00000000       0.57676768       0.00000000       0.00000000     797.00408936
2
Properties=species:S:1:pos:R:3:forces:R:3 energy=440.86389098538626 pbc="F F F"
Cd       0.00000000       0.00000000       0.00000000       0.00000000       0.00000000    -518.85083008
Cd       0.00000000       0.00000000       0.63636364       0.00000000       0.00000000     518.85083008
2
Properties=species:S:1:pos:R:3:forces:R:3 energy=414.04348705619697 pbc="F F F"
Cd       0.00000000       0.00000000       0.00000000       0.00000000       0.00000000    -399.30715942
Cd       0.00000000       0.00000000       0.69595960       0.00000000       0.00000000     399.30715942
2
Properties=species:S:1:pos:R:3:forces:R:3 energy=391.3547055143207 pbc="F F F"
Cd       0.00000000       0.00000000       0.00000000       0.00000000       0.00000000    -373.93875122
Cd       0.00000000       0.00000000       0.75555556       0.00000000       0.00000000     373.93875122
2
Properties=species:S:1:pos:R:3:forces:R:3 energy=369.1903686475572 pbc="F F F"
Cd       0.00000000       0.00000000       0.00000000       0.00000000       0.00000000    -381.67117310
Cd       0.00000000       0.00000000       0.81515152       0.00000000       0.00000000     381.67117310
2
Properties=species:S:1:pos:R:3:forces:R:3 energy=344.15893596024097 pbc="F F F"
Cd       0.00000000       0.00000000       0.00000000       0.00000000       0.00000000    -473.21270752
Cd       0.00000000       0.00000000       0.87474747       0.00000000       0.00000000     473.21270752
2
Properties=species:S:1:pos:R:3:forces:R:3 energy=312.06073098938526 pbc="F F F"
Cd       0.00000000       0.00000000       0.00000000       0.00000000       0.00000000    -598.34771729
Cd       0.00000000       0.00000000       0.93434343       0.00000000       0.00000000     598.34771729
2
Properties=species:S:1:pos:R:3:forces:R:3 energy=273.99832336575344 pbc="F F F"
Cd       0.00000000       0.00000000       0.00000000       0.00000000       0.00000000    -670.03918457
Cd       0.00000000       0.00000000       0.99393939       0.00000000       0.00000000     670.03918457
2
Properties=species:S:1:pos:R:3:forces:R:3 energy=233.1416808072368 pbc="F F F"
Cd       0.00000000       0.00000000       0.00000000       0.00000000       0.00000000    -693.34704590
Cd       0.00000000       0.00000000       1.05353535       0.00000000       0.00000000     693.34704590
2
Properties=species:S:1:pos:R:3:forces:R:3 energy=192.21765581002325 pbc="F F F"
Cd       0.00000000       0.00000000       0.00000000       0.00000000       0.00000000    -673.61193848
Cd       0.00000000       0.00000000       1.11313131       0.00000000       0.00000000     673.61193848
2
Properties=species:S:1:pos:R:3:forces:R:3 energy=153.70336029505705 pbc="F F F"
Cd       0.00000000       0.00000000       0.00000000       0.00000000       0.00000000    -609.49877930
Cd       0.00000000       0.00000000       1.17272727       0.00000000       0.00000000     609.49877930
2
Properties=species:S:1:pos:R:3:forces:R:3 energy=120.74035015617703 pbc="F F F"
Cd       0.00000000       0.00000000       0.00000000       0.00000000       0.00000000    -491.79446411
Cd       0.00000000       0.00000000       1.23232323       0.00000000       0.00000000     491.79446411
2
Properties=species:S:1:pos:R:3:forces:R:3 energy=94.5224045308022 pbc="F F F"
Cd       0.00000000       0.00000000       0.00000000       0.00000000       0.00000000    -398.03045654
Cd       0.00000000       0.00000000       1.29191919       0.00000000       0.00000000     398.03045654
2
Properties=species:S:1:pos:R:3:forces:R:3 energy=72.55321619794115 pbc="F F F"
Cd       0.00000000       0.00000000       0.00000000       0.00000000       0.00000000    -340.64544678
Cd       0.00000000       0.00000000       1.35151515       0.00000000       0.00000000     340.64544678
2
Properties=species:S:1:pos:R:3:forces:R:3 energy=53.98385117407924 pbc="F F F"
Cd       0.00000000       0.00000000       0.00000000       0.00000000       0.00000000    -281.56814575
Cd       0.00000000       0.00000000       1.41111111       0.00000000       0.00000000     281.56814575
2
Properties=species:S:1:pos:R:3:forces:R:3 energy=39.11193236479589 pbc="F F F"
Cd       0.00000000       0.00000000       0.00000000       0.00000000       0.00000000    -216.79000854
Cd       0.00000000       0.00000000       1.47070707       0.00000000       0.00000000     216.79000854
2
Properties=species:S:1:pos:R:3:forces:R:3 energy=28.02614218869603 pbc="F F F"
Cd       0.00000000       0.00000000       0.00000000       0.00000000       0.00000000    -158.25338745
Cd       0.00000000       0.00000000       1.53030303       0.00000000       0.00000000     158.25338745
2
Properties=species:S:1:pos:R:3:forces:R:3 energy=19.89123389108873 pbc="F F F"
Cd       0.00000000       0.00000000       0.00000000       0.00000000       0.00000000    -116.33641052
Cd       0.00000000       0.00000000       1.58989899       0.00000000       0.00000000     116.33641052
2
Properties=species:S:1:pos:R:3:forces:R:3 energy=14.05535423369048 pbc="F F F"
Cd       0.00000000       0.00000000       0.00000000       0.00000000       0.00000000     -80.87793732
Cd       0.00000000       0.00000000       1.64949495       0.00000000       0.00000000      80.87793732
2
Properties=species:S:1:pos:R:3:forces:R:3 energy=10.046613105934323 pbc="F F F"
Cd       0.00000000       0.00000000       0.00000000       0.00000000       0.00000000     -54.94348907
Cd       0.00000000       0.00000000       1.70909091       0.00000000       0.00000000      54.94348907
2
Properties=species:S:1:pos:R:3:forces:R:3 energy=7.410330072849835 pbc="F F F"
Cd       0.00000000       0.00000000       0.00000000       0.00000000       0.00000000     -34.35327148
Cd       0.00000000       0.00000000       1.76868687       0.00000000       0.00000000      34.35327148
2
Properties=species:S:1:pos:R:3:forces:R:3 energy=5.812749970726453 pbc="F F F"
Cd       0.00000000       0.00000000       0.00000000       0.00000000       0.00000000     -20.60989380
Cd       0.00000000       0.00000000       1.82828283       0.00000000       0.00000000      20.60989380
2
Properties=species:S:1:pos:R:3:forces:R:3 energy=4.811047862320025 pbc="F F F"
Cd       0.00000000       0.00000000       0.00000000       0.00000000       0.00000000     -13.93148518
Cd       0.00000000       0.00000000       1.88787879       0.00000000       0.00000000      13.93148518
2
Properties=species:S:1:pos:R:3:forces:R:3 energy=4.07662748513459 pbc="F F F"
Cd       0.00000000       0.00000000       0.00000000       0.00000000       0.00000000     -11.10560417
Cd       0.00000000       0.00000000       1.94747475       0.00000000       0.00000000      11.10560417
2
Properties=species:S:1:pos:R:3:forces:R:3 energy=3.4598624249117225 pbc="F F F"
Cd       0.00000000       0.00000000       0.00000000       0.00000000       0.00000000      -9.71175194
Cd       0.00000000       0.00000000       2.00707071       0.00000000       0.00000000       9.71175194
2
Properties=species:S:1:pos:R:3:forces:R:3 energy=2.9119458694356415 pbc="F F F"
Cd       0.00000000       0.00000000       0.00000000       0.00000000       0.00000000      -8.69922256
Cd       0.00000000       0.00000000       2.06666667       0.00000000       0.00000000       8.69922256
2
Properties=species:S:1:pos:R:3:forces:R:3 energy=2.4220417237883476 pbc="F F F"
Cd       0.00000000       0.00000000       0.00000000       0.00000000       0.00000000      -7.74210501
Cd       0.00000000       0.00000000       2.12626263       0.00000000       0.00000000       7.74210501
2
Properties=species:S:1:pos:R:3:forces:R:3 energy=1.9892309980366332 pbc="F F F"
Cd       0.00000000       0.00000000       0.00000000       0.00000000       0.00000000      -6.78275156
Cd       0.00000000       0.00000000       2.18585859       0.00000000       0.00000000       6.78275156
2
Properties=species:S:1:pos:R:3:forces:R:3 energy=1.6133583042547945 pbc="F F F"
Cd       0.00000000       0.00000000       0.00000000       0.00000000       0.00000000      -5.83524275
Cd       0.00000000       0.00000000       2.24545455       0.00000000       0.00000000       5.83524275
2
Properties=species:S:1:pos:R:3:forces:R:3 energy=1.2929834399445377 pbc="F F F"
Cd       0.00000000       0.00000000       0.00000000       0.00000000       0.00000000      -4.92462444
Cd       0.00000000       0.00000000       2.30505051       0.00000000       0.00000000       4.92462444
2
Properties=species:S:1:pos:R:3:forces:R:3 energy=1.025146567397101 pbc="F F F"
Cd       0.00000000       0.00000000       0.00000000       0.00000000       0.00000000      -4.07627010
Cd       0.00000000       0.00000000       2.36464646       0.00000000       0.00000000       4.07627010
2
Properties=species:S:1:pos:R:3:forces:R:3 energy=0.8054094894334219 pbc="F F F"
Cd       0.00000000       0.00000000       0.00000000       0.00000000       0.00000000      -3.31400704
Cd       0.00000000       0.00000000       2.42424242       0.00000000       0.00000000       3.31400704
2
Properties=species:S:1:pos:R:3:forces:R:3 energy=0.6280707837174513 pbc="F F F"
Cd       0.00000000       0.00000000       0.00000000       0.00000000       0.00000000      -2.65571666
Cd       0.00000000       0.00000000       2.48383838       0.00000000       0.00000000       2.65571666
2
Properties=species:S:1:pos:R:3:forces:R:3 energy=0.48664328636534626 pbc="F F F"
Cd       0.00000000       0.00000000       0.00000000       0.00000000       0.00000000      -2.10912919
Cd       0.00000000       0.00000000       2.54343434       0.00000000       0.00000000       2.10912919
2
Properties=species:S:1:pos:R:3:forces:R:3 energy=0.37451460315566437 pbc="F F F"
Cd       0.00000000       0.00000000       0.00000000       0.00000000       0.00000000      -1.67124569
Cd       0.00000000       0.00000000       2.60303030       0.00000000       0.00000000       1.67124569
2
Properties=species:S:1:pos:R:3:forces:R:3 energy=0.28550464676020726 pbc="F F F"
Cd       0.00000000       0.00000000       0.00000000       0.00000000       0.00000000      -1.33089125
Cd       0.00000000       0.00000000       2.66262626       0.00000000       0.00000000       1.33089125
2
Properties=species:S:1:pos:R:3:forces:R:3 energy=0.21425476115226827 pbc="F F F"
Cd       0.00000000       0.00000000       0.00000000       0.00000000       0.00000000      -1.07245207
Cd       0.00000000       0.00000000       2.72222222       0.00000000       0.00000000       1.07245207
2
Properties=species:S:1:pos:R:3:forces:R:3 energy=0.15639605030939277 pbc="F F F"
Cd       0.00000000       0.00000000       0.00000000       0.00000000       0.00000000      -0.87847936
Cd       0.00000000       0.00000000       2.78181818       0.00000000       0.00000000       0.87847936
2
Properties=species:S:1:pos:R:3:forces:R:3 energy=0.10863164303115988 pbc="F F F"
Cd       0.00000000       0.00000000       0.00000000       0.00000000       0.00000000      -0.73055232
Cd       0.00000000       0.00000000       2.84141414       0.00000000       0.00000000       0.73055232
2
Properties=species:S:1:pos:R:3:forces:R:3 energy=0.06877799074948895 pbc="F F F"
Cd       0.00000000       0.00000000       0.00000000       0.00000000       0.00000000      -0.61004829
Cd       0.00000000       0.00000000       2.90101010       0.00000000       0.00000000       0.61004829
2
Properties=species:S:1:pos:R:3:forces:R:3 energy=0.035668030657029906 pbc="F F F"
Cd       0.00000000       0.00000000       0.00000000       0.00000000       0.00000000      -0.50257212
Cd       0.00000000       0.00000000       2.96060606       0.00000000       0.00000000       0.50257212
2
Properties=species:S:1:pos:R:3:forces:R:3 energy=0.008705018612954883 pbc="F F F"
Cd       0.00000000       0.00000000       0.00000000       0.00000000       0.00000000      -0.40392423
Cd       0.00000000       0.00000000       3.02020202       0.00000000       0.00000000       0.40392423
2
Properties=species:S:1:pos:R:3:forces:R:3 energy=-0.012713217633738241 pbc="F F F"
Cd       0.00000000       0.00000000       0.00000000       0.00000000       0.00000000      -0.31709751
Cd       0.00000000       0.00000000       3.07979798       0.00000000       0.00000000       0.31709751
2
Properties=species:S:1:pos:R:3:forces:R:3 energy=-0.029357957502040406 pbc="F F F"
Cd       0.00000000       0.00000000       0.00000000       0.00000000       0.00000000      -0.24363551
Cd       0.00000000       0.00000000       3.13939394       0.00000000       0.00000000       0.24363551
2
Properties=species:S:1:pos:R:3:forces:R:3 energy=-0.04199214257951449 pbc="F F F"
Cd       0.00000000       0.00000000       0.00000000       0.00000000       0.00000000      -0.18223514
Cd       0.00000000       0.00000000       3.19898990       0.00000000       0.00000000       0.18223514
2
Properties=species:S:1:pos:R:3:forces:R:3 energy=-0.051291249134285004 pbc="F F F"
Cd       0.00000000       0.00000000       0.00000000       0.00000000       0.00000000      -0.13155203
Cd       0.00000000       0.00000000       3.25858586       0.00000000       0.00000000       0.13155203
2
Properties=species:S:1:pos:R:3:forces:R:3 energy=-0.05787219456495827 pbc="F F F"
Cd       0.00000000       0.00000000       0.00000000       0.00000000       0.00000000      -0.09092932
Cd       0.00000000       0.00000000       3.31818182       0.00000000       0.00000000       0.09092932
2
Properties=species:S:1:pos:R:3:forces:R:3 energy=-0.06231320928017388 pbc="F F F"
Cd       0.00000000       0.00000000       0.00000000       0.00000000       0.00000000      -0.05955990
Cd       0.00000000       0.00000000       3.37777778       0.00000000       0.00000000       0.05955990
2
Properties=species:S:1:pos:R:3:forces:R:3 energy=-0.065125304287212 pbc="F F F"
Cd       0.00000000       0.00000000       0.00000000       0.00000000       0.00000000      -0.03593815
Cd       0.00000000       0.00000000       3.43737374       0.00000000       0.00000000       0.03593815
2
Properties=species:S:1:pos:R:3:forces:R:3 energy=-0.0667105726959116 pbc="F F F"
Cd       0.00000000       0.00000000       0.00000000       0.00000000       0.00000000      -0.01804683
Cd       0.00000000       0.00000000       3.49696970       0.00000000       0.00000000       0.01804683
2
Properties=species:S:1:pos:R:3:forces:R:3 energy=-0.06735075518094813 pbc="F F F"
Cd       0.00000000       0.00000000       0.00000000       0.00000000       0.00000000      -0.00391304
Cd       0.00000000       0.00000000       3.55656566       0.00000000       0.00000000       0.00391304
2
Properties=species:S:1:pos:R:3:forces:R:3 energy=-0.06722235673111765 pbc="F F F"
Cd       0.00000000       0.00000000       0.00000000       0.00000000       0.00000000       0.00792104
Cd       0.00000000       0.00000000       3.61616162       0.00000000       0.00000000      -0.00792104
2
Properties=species:S:1:pos:R:3:forces:R:3 energy=-0.06643636304632458 pbc="F F F"
Cd       0.00000000       0.00000000       0.00000000       0.00000000       0.00000000       0.01823944
Cd       0.00000000       0.00000000       3.67575758       0.00000000       0.00000000      -0.01823944
2
Properties=species:S:1:pos:R:3:forces:R:3 energy=-0.06507379273482813 pbc="F F F"
Cd       0.00000000       0.00000000       0.00000000       0.00000000       0.00000000       0.02727217
Cd       0.00000000       0.00000000       3.73535354       0.00000000       0.00000000      -0.02727217
2
Properties=species:S:1:pos:R:3:forces:R:3 energy=-0.06321292884460449 pbc="F F F"
Cd       0.00000000       0.00000000       0.00000000       0.00000000       0.00000000       0.03492473
Cd       0.00000000       0.00000000       3.79494949       0.00000000       0.00000000      -0.03492473
2
Properties=species:S:1:pos:R:3:forces:R:3 energy=-0.060942372497301084 pbc="F F F"
Cd       0.00000000       0.00000000       0.00000000       0.00000000       0.00000000       0.04098658
Cd       0.00000000       0.00000000       3.85454545       0.00000000       0.00000000      -0.04098658
2
Properties=species:S:1:pos:R:3:forces:R:3 energy=-0.05836361482070645 pbc="F F F"
Cd       0.00000000       0.00000000       0.00000000       0.00000000       0.00000000       0.04525565
Cd       0.00000000       0.00000000       3.91414141       0.00000000       0.00000000      -0.04525565
2
Properties=species:S:1:pos:R:3:forces:R:3 energy=-0.055587045109954616 pbc="F F F"
Cd       0.00000000       0.00000000       0.00000000       0.00000000       0.00000000       0.04759282
Cd       0.00000000       0.00000000       3.97373737       0.00000000       0.00000000      -0.04759282
2
Properties=species:S:1:pos:R:3:forces:R:3 energy=-0.05273040371711499 pbc="F F F"
Cd       0.00000000       0.00000000       0.00000000       0.00000000       0.00000000       0.04794420
Cd       0.00000000       0.00000000       4.03333333       0.00000000       0.00000000      -0.04794420
2
Properties=species:S:1:pos:R:3:forces:R:3 energy=-0.04991108311505269 pbc="F F F"
Cd       0.00000000       0.00000000       0.00000000       0.00000000       0.00000000       0.04635535
Cd       0.00000000       0.00000000       4.09292929       0.00000000       0.00000000      -0.04635535
2
Properties=species:S:1:pos:R:3:forces:R:3 energy=-0.04724048093468518 pbc="F F F"
Cd       0.00000000       0.00000000       0.00000000       0.00000000       0.00000000       0.04299153
Cd       0.00000000       0.00000000       4.15252525       0.00000000       0.00000000      -0.04299153
2
Properties=species:S:1:pos:R:3:forces:R:3 energy=-0.04481620229539575 pbc="F F F"
Cd       0.00000000       0.00000000       0.00000000       0.00000000       0.00000000       0.03815284
Cd       0.00000000       0.00000000       4.21212121       0.00000000       0.00000000      -0.03815284
2
Properties=species:S:1:pos:R:3:forces:R:3 energy=-0.042713842686314965 pbc="F F F"
Cd       0.00000000       0.00000000       0.00000000       0.00000000       0.00000000       0.03227191
Cd       0.00000000       0.00000000       4.27171717       0.00000000       0.00000000      -0.03227191
2
Properties=species:S:1:pos:R:3:forces:R:3 energy=-0.04097978881631098 pbc="F F F"
Cd       0.00000000       0.00000000       0.00000000       0.00000000       0.00000000       0.02588217
Cd       0.00000000       0.00000000       4.33131313       0.00000000       0.00000000      -0.02588217
2
Properties=species:S:1:pos:R:3:forces:R:3 energy=-0.03962762176668274 pbc="F F F"
Cd       0.00000000       0.00000000       0.00000000       0.00000000       0.00000000       0.01954987
Cd       0.00000000       0.00000000       4.39090909       0.00000000       0.00000000      -0.01954987
2
Properties=species:S:1:pos:R:3:forces:R:3 energy=-0.0386380936617068 pbc="F F F"
Cd       0.00000000       0.00000000       0.00000000       0.00000000       0.00000000       0.01378839
Cd       0.00000000       0.00000000       4.45050505       0.00000000       0.00000000      -0.01378839
2
Properties=species:S:1:pos:R:3:forces:R:3 energy=-0.03796523298593936 pbc="F F F"
Cd       0.00000000       0.00000000       0.00000000       0.00000000       0.00000000       0.00897175
Cd       0.00000000       0.00000000       4.51010101       0.00000000       0.00000000      -0.00897175
2
Properties=species:S:1:pos:R:3:forces:R:3 energy=-0.03754651362251177 pbc="F F F"
Cd       0.00000000       0.00000000       0.00000000       0.00000000       0.00000000       0.00527385
Cd       0.00000000       0.00000000       4.56969697       0.00000000       0.00000000      -0.00527385
2
Properties=species:S:1:pos:R:3:forces:R:3 energy=-0.03731499780408586 pbc="F F F"
Cd       0.00000000       0.00000000       0.00000000       0.00000000       0.00000000       0.00265881
Cd       0.00000000       0.00000000       4.62929293       0.00000000       0.00000000      -0.00265881
2
Properties=species:S:1:pos:R:3:forces:R:3 energy=-0.037212134281404574 pbc="F F F"
Cd       0.00000000       0.00000000       0.00000000       0.00000000       0.00000000       0.00091555
Cd       0.00000000       0.00000000       4.68888889       0.00000000       0.00000000      -0.00091555
2
Properties=species:S:1:pos:R:3:forces:R:3 energy=-0.03719466202066991 pbc="F F F"
Cd       0.00000000       0.00000000       0.00000000       0.00000000       0.00000000      -0.00026147
Cd       0.00000000       0.00000000       4.74848485       0.00000000       0.00000000       0.00026147
2
Properties=species:S:1:pos:R:3:forces:R:3 energy=-0.03723802959979371 pbc="F F F"
Cd       0.00000000       0.00000000       0.00000000       0.00000000       0.00000000      -0.00117493
Cd       0.00000000       0.00000000       4.80808081       0.00000000       0.00000000       0.00117493
2
Properties=species:S:1:pos:R:3:forces:R:3 energy=-0.037333643931033375 pbc="F F F"
Cd       0.00000000       0.00000000       0.00000000       0.00000000       0.00000000      -0.00203128
Cd       0.00000000       0.00000000       4.86767677       0.00000000       0.00000000       0.00203128
2
Properties=species:S:1:pos:R:3:forces:R:3 energy=-0.0374803240380579 pbc="F F F"
Cd       0.00000000       0.00000000       0.00000000       0.00000000       0.00000000      -0.00288370
Cd       0.00000000       0.00000000       4.92727273       0.00000000       0.00000000       0.00288370
2
Properties=species:S:1:pos:R:3:forces:R:3 energy=-0.03767532870751796 pbc="F F F"
Cd       0.00000000       0.00000000       0.00000000       0.00000000       0.00000000      -0.00363150
Cd       0.00000000       0.00000000       4.98686869       0.00000000       0.00000000       0.00363150
2
Properties=species:S:1:pos:R:3:forces:R:3 energy=-0.03790716801045481 pbc="F F F"
Cd       0.00000000       0.00000000       0.00000000       0.00000000       0.00000000      -0.00408677
Cd       0.00000000       0.00000000       5.04646465       0.00000000       0.00000000       0.00408677
2
Properties=species:S:1:pos:R:3:forces:R:3 energy=-0.038153309903892804 pbc="F F F"
Cd       0.00000000       0.00000000       0.00000000       0.00000000       0.00000000      -0.00409117
Cd       0.00000000       0.00000000       5.10606061       0.00000000       0.00000000       0.00409117
2
Properties=species:S:1:pos:R:3:forces:R:3 energy=-0.03838577986414858 pbc="F F F"
Cd       0.00000000       0.00000000       0.00000000       0.00000000       0.00000000      -0.00363946
Cd       0.00000000       0.00000000       5.16565657       0.00000000       0.00000000       0.00363946
2
Properties=species:S:1:pos:R:3:forces:R:3 energy=-0.03858229243472422 pbc="F F F"
Cd       0.00000000       0.00000000       0.00000000       0.00000000       0.00000000      -0.00294159
Cd       0.00000000       0.00000000       5.22525253       0.00000000       0.00000000       0.00294159
2
Properties=species:S:1:pos:R:3:forces:R:3 energy=-0.038737444152997014 pbc="F F F"
Cd       0.00000000       0.00000000       0.00000000       0.00000000       0.00000000      -0.00228822
Cd       0.00000000       0.00000000       5.28484848       0.00000000       0.00000000       0.00228822
2
Properties=species:S:1:pos:R:3:forces:R:3 energy=-0.03885477407165967 pbc="F F F"
Cd       0.00000000       0.00000000       0.00000000       0.00000000       0.00000000      -0.00158813
Cd       0.00000000       0.00000000       5.34444444       0.00000000       0.00000000       0.00158813
2
Properties=species:S:1:pos:R:3:forces:R:3 energy=-0.038908339163443446 pbc="F F F"
Cd       0.00000000       0.00000000       0.00000000       0.00000000       0.00000000       0.00003182
Cd       0.00000000       0.00000000       5.40404040       0.00000000       0.00000000      -0.00003182
2
Properties=species:S:1:pos:R:3:forces:R:3 energy=-0.03882548209265488 pbc="F F F"
Cd       0.00000000       0.00000000       0.00000000       0.00000000       0.00000000       0.00281877
Cd       0.00000000       0.00000000       5.46363636       0.00000000       0.00000000      -0.00281877
2
Properties=species:S:1:pos:R:3:forces:R:3 energy=-0.038597631232599905 pbc="F F F"
Cd       0.00000000       0.00000000       0.00000000       0.00000000       0.00000000       0.00435964
Cd       0.00000000       0.00000000       5.52323232       0.00000000       0.00000000      -0.00435964
2
Properties=species:S:1:pos:R:3:forces:R:3 energy=-0.038363729785009404 pbc="F F F"
Cd       0.00000000       0.00000000       0.00000000       0.00000000       0.00000000       0.00315036
Cd       0.00000000       0.00000000       5.58282828       0.00000000       0.00000000      -0.00315036
2
Properties=species:S:1:pos:R:3:forces:R:3 energy=-0.03822721794410461 pbc="F F F"
Cd       0.00000000       0.00000000       0.00000000       0.00000000       0.00000000       0.00169755
Cd       0.00000000       0.00000000       5.64242424       0.00000000       0.00000000      -0.00169755
2
Properties=species:S:1:pos:R:3:forces:R:3 energy=-0.038102639958301356 pbc="F F F"
Cd       0.00000000       0.00000000       0.00000000       0.00000000       0.00000000       0.00309614
Cd       0.00000000       0.00000000       5.70202020       0.00000000       0.00000000      -0.00309614
2
Properties=species:S:1:pos:R:3:forces:R:3 energy=-0.03780488733059406 pbc="F F F"
Cd       0.00000000       0.00000000       0.00000000       0.00000000       0.00000000       0.00702387
Cd       0.00000000       0.00000000       5.76161616       0.00000000       0.00000000      -0.00702387
2
Properties=species:S:1:pos:R:3:forces:R:3 energy=-0.03728982854769014 pbc="F F F"
Cd       0.00000000       0.00000000       0.00000000       0.00000000       0.00000000       0.00980597
Cd       0.00000000       0.00000000       5.82121212       0.00000000       0.00000000      -0.00980597
2
Properties=species:S:1:pos:R:3:forces:R:3 energy=-0.03669262808848936 pbc="F F F"
Cd       0.00000000       0.00000000       0.00000000       0.00000000       0.00000000       0.00988034
Cd       0.00000000       0.00000000       5.88080808       0.00000000       0.00000000      -0.00988034
2
Properties=species:S:1:pos:R:3:forces:R:3 energy=-0.03613448348236031 pbc="F F F"
Cd       0.00000000       0.00000000       0.00000000       0.00000000       0.00000000       0.00879397
Cd       0.00000000       0.00000000       5.94040404       0.00000000       0.00000000      -0.00879397
2
Properties=species:S:1:pos:R:3:forces:R:3 energy=-0.035638216579875565 pbc="F F F"
Cd       0.00000000       0.00000000       0.00000000       0.00000000       0.00000000       0.00797041
Cd       0.00000000       0.00000000       6.00000000       0.00000000       0.00000000      -0.00797041
