2
Properties=species:S:1:pos:R:3:forces:R:3 energy=10610.469616657409 pbc="F F F"
Ce       0.00000000       0.00000000       0.00000000       0.00000000       0.00000000 -180625.92187500
Ce       0.00000000       0.00000000       0.18000000       0.00000000       0.00000000  180625.92187500
2
Properties=species:S:1:pos:R:3:forces:R:3 energy=4234.754772907409 pbc="F F F"
Ce       0.00000000       0.00000000       0.00000000       0.00000000       0.00000000  -61205.31250000
Ce       0.00000000       0.00000000       0.23878788       0.00000000       0.00000000   61205.31250000
2
Properties=species:S:1:pos:R:3:forces:R:3 energy=1904.9868285714715 pbc="F F F"
Ce       0.00000000       0.00000000       0.00000000       0.00000000       0.00000000  -24428.50195312
Ce       0.00000000       0.00000000       0.29757576       0.00000000       0.00000000   24428.50195312
2
Properties=species:S:1:pos:R:3:forces:R:3 energy=930.4160888253776 pbc="F F F"
Ce       0.00000000       0.00000000       0.00000000       0.00000000       0.00000000  -10790.06933594
Ce       0.00000000       0.00000000       0.35636364       0.00000000       0.00000000   10790.06933594
2
Properties=species:S:1:pos:R:3:forces:R:3 energy=485.71656489959645 pbc="F F F"
Ce       0.00000000       0.00000000       0.00000000       0.00000000       0.00000000   -5115.30712891
Ce       0.00000000       0.00000000       0.41515152       0.00000000       0.00000000    5115.30712891
2
Properties=species:S:1:pos:R:3:forces:R:3 energy=269.48731685430533 pbc="F F F"
Ce       0.00000000       0.00000000       0.00000000       0.00000000       0.00000000   -2563.23925781
Ce       0.00000000       0.00000000       0.47393939       0.00000000       0.00000000    2563.23925781
2
Properties=species:S:1:pos:R:3:forces:R:3 energy=158.80679012565864 pbc="F F F"
Ce       0.00000000       0.00000000       0.00000000       0.00000000       0.00000000   -1345.45202637
Ce       0.00000000       0.00000000       0.53272727       0.00000000       0.00000000    1345.45202637
2
Properties=species:S:1:pos:R:3:forces:R:3 energy=99.6499908124202 pbc="F F F"
Ce       0.00000000       0.00000000       0.00000000       0.00000000       0.00000000    -734.27099609
Ce       0.00000000       0.00000000       0.59151515       0.00000000       0.00000000     734.27099609
2
Properties=species:S:1:pos:R:3:forces:R:3 energy=66.89546658779881 pbc="F F F"
Ce       0.00000000       0.00000000       0.00000000       0.00000000       0.00000000    -413.02661133
Ce       0.00000000       0.00000000       0.65030303       0.00000000       0.00000000     413.02661133
2
Properties=species:S:1:pos:R:3:forces:R:3 energy=48.29398802539386 pbc="F F F"
Ce       0.00000000       0.00000000       0.00000000       0.00000000       0.00000000    -236.70397949
Ce       0.00000000       0.00000000       0.70909091       0.00000000       0.00000000     236.70397949
2
Properties=species:S:1:pos:R:3:forces:R:3 energy=37.60267716024852 pbc="F F F"
Ce       0.00000000       0.00000000       0.00000000       0.00000000       0.00000000    -136.08215332
Ce       0.00000000       0.00000000       0.76787879       0.00000000       0.00000000     136.08215332
2
Properties=species:S:1:pos:R:3:forces:R:3 energy=31.491082031782504 pbc="F F F"
Ce       0.00000000       0.00000000       0.00000000       0.00000000       0.00000000     -76.96131897
Ce       0.00000000       0.00000000       0.82666667       0.00000000       0.00000000      76.96131897
2
Properties=species:S:1:pos:R:3:forces:R:3 energy=28.086207271328448 pbc="F F F"
Ce       0.00000000       0.00000000       0.00000000       0.00000000       0.00000000     -41.97099304
Ce       0.00000000       0.00000000       0.88545455       0.00000000       0.00000000      41.97099304
2
Properties=species:S:1:pos:R:3:forces:R:3 energy=26.2621220864179 pbc="F F F"
Ce       0.00000000       0.00000000       0.00000000       0.00000000       0.00000000     -22.13467979
Ce       0.00000000       0.00000000       0.94424242       0.00000000       0.00000000      22.13467979
2
Properties=species:S:1:pos:R:3:forces:R:3 energy=25.27635098007859 pbc="F F F"
Ce       0.00000000       0.00000000       0.00000000       0.00000000       0.00000000     -12.97579765
Ce       0.00000000       0.00000000       1.00303030       0.00000000       0.00000000      12.97579765
2
Properties=species:S:1:pos:R:3:forces:R:3 energy=24.56045065872241 pbc="F F F"
Ce       0.00000000       0.00000000       0.00000000       0.00000000       0.00000000     -12.81884098
Ce       0.00000000       0.00000000       1.06181818       0.00000000       0.00000000      12.81884098
2
Properties=species:S:1:pos:R:3:forces:R:3 energy=23.62252354250937 pbc="F F F"
Ce       0.00000000       0.00000000       0.00000000       0.00000000       0.00000000     -20.00018120
Ce       0.00000000       0.00000000       1.12060606       0.00000000       0.00000000      20.00018120
2
Properties=species:S:1:pos:R:3:forces:R:3 energy=22.148898530466294 pbc="F F F"
Ce       0.00000000       0.00000000       0.00000000       0.00000000       0.00000000     -30.29996872
Ce       0.00000000       0.00000000       1.17939394       0.00000000       0.00000000      30.29996872
2
Properties=species:S:1:pos:R:3:forces:R:3 energy=20.07111516920303 pbc="F F F"
Ce       0.00000000       0.00000000       0.00000000       0.00000000       0.00000000     -40.09899521
Ce       0.00000000       0.00000000       1.23818182       0.00000000       0.00000000      40.09899521
2
Properties=species:S:1:pos:R:3:forces:R:3 energy=17.47092052169284 pbc="F F F"
Ce       0.00000000       0.00000000       0.00000000       0.00000000       0.00000000     -48.10321426
Ce       0.00000000       0.00000000       1.29696970       0.00000000       0.00000000      48.10321426
2
Properties=species:S:1:pos:R:3:forces:R:3 energy=14.44855912586956 pbc="F F F"
Ce       0.00000000       0.00000000       0.00000000       0.00000000       0.00000000     -54.28921509
Ce       0.00000000       0.00000000       1.35575758       0.00000000       0.00000000      54.28921509
2
Properties=species:S:1:pos:R:3:forces:R:3 energy=11.165420346879504 pbc="F F F"
Ce       0.00000000       0.00000000       0.00000000       0.00000000       0.00000000     -56.56431198
Ce       0.00000000       0.00000000       1.41454545       0.00000000       0.00000000      56.56431198
2
Properties=species:S:1:pos:R:3:forces:R:3 energy=7.900063886899112 pbc="F F F"
Ce       0.00000000       0.00000000       0.00000000       0.00000000       0.00000000     -53.74292374
Ce       0.00000000       0.00000000       1.47333333       0.00000000       0.00000000      53.74292374
2
Properties=species:S:1:pos:R:3:forces:R:3 energy=4.914821730688588 pbc="F F F"
Ce       0.00000000       0.00000000       0.00000000       0.00000000       0.00000000     -47.46200180
Ce       0.00000000       0.00000000       1.53212121       0.00000000       0.00000000      47.46200180
2
Properties=species:S:1:pos:R:3:forces:R:3 energy=2.3390314496322824 pbc="F F F"
Ce       0.00000000       0.00000000       0.00000000       0.00000000       0.00000000     -40.13032532
Ce       0.00000000       0.00000000       1.59090909       0.00000000       0.00000000      40.13032532
2
Properties=species:S:1:pos:R:3:forces:R:3 energy=0.19977980859623384 pbc="F F F"
Ce       0.00000000       0.00000000       0.00000000       0.00000000       0.00000000     -32.56541824
Ce       0.00000000       0.00000000       1.64969697       0.00000000       0.00000000      32.56541824
2
Properties=species:S:1:pos:R:3:forces:R:3 energy=-1.473437924651346 pbc="F F F"
Ce       0.00000000       0.00000000       0.00000000       0.00000000       0.00000000     -24.24029350
Ce       0.00000000       0.00000000       1.70848485       0.00000000       0.00000000      24.24029350
2
Properties=species:S:1:pos:R:3:forces:R:3 energy=-2.6576260064754 pbc="F F F"
Ce       0.00000000       0.00000000       0.00000000       0.00000000       0.00000000     -16.34075546
Ce       0.00000000       0.00000000       1.76727273       0.00000000       0.00000000      16.34075546
2
Properties=species:S:1:pos:R:3:forces:R:3 energy=-3.446542738760597 pbc="F F F"
Ce       0.00000000       0.00000000       0.00000000       0.00000000       0.00000000     -10.96515846
Ce       0.00000000       0.00000000       1.82606061       0.00000000       0.00000000      10.96515846
2
Properties=species:S:1:pos:R:3:forces:R:3 energy=-3.989703232302789 pbc="F F F"
Ce       0.00000000       0.00000000       0.00000000       0.00000000       0.00000000      -7.76266956
Ce       0.00000000       0.00000000       1.88484848       0.00000000       0.00000000       7.76266956
2
Properties=species:S:1:pos:R:3:forces:R:3 energy=-4.381073445233398 pbc="F F F"
Ce       0.00000000       0.00000000       0.00000000       0.00000000       0.00000000      -5.71644354
Ce       0.00000000       0.00000000       1.94363636       0.00000000       0.00000000       5.71644354
2
Properties=species:S:1:pos:R:3:forces:R:3 energy=-4.681828902156895 pbc="F F F"
Ce       0.00000000       0.00000000       0.00000000       0.00000000       0.00000000      -4.68344402
Ce       0.00000000       0.00000000       2.00242424       0.00000000       0.00000000       4.68344402
2
Properties=species:S:1:pos:R:3:forces:R:3 energy=-4.948140484867739 pbc="F F F"
Ce       0.00000000       0.00000000       0.00000000       0.00000000       0.00000000      -4.47387171
Ce       0.00000000       0.00000000       2.06121212       0.00000000       0.00000000       4.47387171
2
Properties=species:S:1:pos:R:3:forces:R:3 energy=-5.213622760725284 pbc="F F F"
Ce       0.00000000       0.00000000       0.00000000       0.00000000       0.00000000      -4.56356716
Ce       0.00000000       0.00000000       2.12000000       0.00000000       0.00000000       4.56356716
2
Properties=species:S:1:pos:R:3:forces:R:3 energy=-5.481603977066055 pbc="F F F"
Ce       0.00000000       0.00000000       0.00000000       0.00000000       0.00000000      -4.50336647
Ce       0.00000000       0.00000000       2.17878788       0.00000000       0.00000000       4.50336647
2
Properties=species:S:1:pos:R:3:forces:R:3 energy=-5.735982211200652 pbc="F F F"
Ce       0.00000000       0.00000000       0.00000000       0.00000000       0.00000000      -4.08795500
Ce       0.00000000       0.00000000       2.23757576       0.00000000       0.00000000       4.08795500
2
Properties=species:S:1:pos:R:3:forces:R:3 energy=-5.955922926892776 pbc="F F F"
Ce       0.00000000       0.00000000       0.00000000       0.00000000       0.00000000      -3.35528541
Ce       0.00000000       0.00000000       2.29636364       0.00000000       0.00000000       3.35528541
2
Properties=species:S:1:pos:R:3:forces:R:3 energy=-6.1279835048613 pbc="F F F"
Ce       0.00000000       0.00000000       0.00000000       0.00000000       0.00000000      -2.49448490
Ce       0.00000000       0.00000000       2.35515152       0.00000000       0.00000000       2.49448490
2
Properties=species:S:1:pos:R:3:forces:R:3 energy=-6.250339928934501 pbc="F F F"
Ce       0.00000000       0.00000000       0.00000000       0.00000000       0.00000000      -1.68738401
Ce       0.00000000       0.00000000       2.41393939       0.00000000       0.00000000       1.68738401
2
Properties=species:S:1:pos:R:3:forces:R:3 energy=-6.3291628268155335 pbc="F F F"
Ce       0.00000000       0.00000000       0.00000000       0.00000000       0.00000000      -1.01945341
Ce       0.00000000       0.00000000       2.47272727       0.00000000       0.00000000       1.01945341
2
Properties=species:S:1:pos:R:3:forces:R:3 energy=-6.373014631889631 pbc="F F F"
Ce       0.00000000       0.00000000       0.00000000       0.00000000       0.00000000      -0.49391693
Ce       0.00000000       0.00000000       2.53151515       0.00000000       0.00000000       0.49391693
2
Properties=species:S:1:pos:R:3:forces:R:3 energy=-6.3893686640496705 pbc="F F F"
Ce       0.00000000       0.00000000       0.00000000       0.00000000       0.00000000      -0.07711217
Ce       0.00000000       0.00000000       2.59030303       0.00000000       0.00000000       0.07711217
2
Properties=species:S:1:pos:R:3:forces:R:3 energy=-6.38337889457974 pbc="F F F"
Ce       0.00000000       0.00000000       0.00000000       0.00000000       0.00000000       0.27338454
Ce       0.00000000       0.00000000       2.64909091       0.00000000       0.00000000      -0.27338454
2
Properties=species:S:1:pos:R:3:forces:R:3 energy=-6.357732134555651 pbc="F F F"
Ce       0.00000000       0.00000000       0.00000000       0.00000000       0.00000000       0.59779924
Ce       0.00000000       0.00000000       2.70787879       0.00000000       0.00000000      -0.59779924
2
Properties=species:S:1:pos:R:3:forces:R:3 energy=-6.3129837044456485 pbc="F F F"
Ce       0.00000000       0.00000000       0.00000000       0.00000000       0.00000000       0.92720789
Ce       0.00000000       0.00000000       2.76666667       0.00000000       0.00000000      -0.92720789
2
Properties=species:S:1:pos:R:3:forces:R:3 energy=-6.248320400490023 pbc="F F F"
Ce       0.00000000       0.00000000       0.00000000       0.00000000       0.00000000       1.27600718
Ce       0.00000000       0.00000000       2.82545455       0.00000000       0.00000000      -1.27600718
2
Properties=species:S:1:pos:R:3:forces:R:3 energy=-6.162685326630824 pbc="F F F"
Ce       0.00000000       0.00000000       0.00000000       0.00000000       0.00000000       1.63805234
Ce       0.00000000       0.00000000       2.88424242       0.00000000       0.00000000      -1.63805234
2
Properties=species:S:1:pos:R:3:forces:R:3 energy=-6.055908976009784 pbc="F F F"
Ce       0.00000000       0.00000000       0.00000000       0.00000000       0.00000000       1.99041378
Ce       0.00000000       0.00000000       2.94303030       0.00000000       0.00000000      -1.99041378
2
Properties=species:S:1:pos:R:3:forces:R:3 energy=-5.929452597923199 pbc="F F F"
Ce       0.00000000       0.00000000       0.00000000       0.00000000       0.00000000       2.30239296
Ce       0.00000000       0.00000000       3.00181818       0.00000000       0.00000000      -2.30239296
2
Properties=species:S:1:pos:R:3:forces:R:3 energy=-5.786571764054579 pbc="F F F"
Ce       0.00000000       0.00000000       0.00000000       0.00000000       0.00000000       2.54488754
Ce       0.00000000       0.00000000       3.06060606       0.00000000       0.00000000      -2.54488754
2
Properties=species:S:1:pos:R:3:forces:R:3 energy=-5.632011672698367 pbc="F F F"
Ce       0.00000000       0.00000000       0.00000000       0.00000000       0.00000000       2.69727302
Ce       0.00000000       0.00000000       3.11939394       0.00000000       0.00000000      -2.69727302
2
Properties=species:S:1:pos:R:3:forces:R:3 energy=-5.47136578852696 pbc="F F F"
Ce       0.00000000       0.00000000       0.00000000       0.00000000       0.00000000       2.75176215
Ce       0.00000000       0.00000000       3.17818182       0.00000000       0.00000000      -2.75176215
2
Properties=species:S:1:pos:R:3:forces:R:3 energy=-5.310272861487589 pbc="F F F"
Ce       0.00000000       0.00000000       0.00000000       0.00000000       0.00000000       2.71468854
Ce       0.00000000       0.00000000       3.23696970       0.00000000       0.00000000      -2.71468854
2
Properties=species:S:1:pos:R:3:forces:R:3 energy=-5.153622028172211 pbc="F F F"
Ce       0.00000000       0.00000000       0.00000000       0.00000000       0.00000000       2.60447288
Ce       0.00000000       0.00000000       3.29575758       0.00000000       0.00000000      -2.60447288
2
Properties=species:S:1:pos:R:3:forces:R:3 energy=-5.004977758876003 pbc="F F F"
Ce       0.00000000       0.00000000       0.00000000       0.00000000       0.00000000       2.44699025
Ce       0.00000000       0.00000000       3.35454545       0.00000000       0.00000000      -2.44699025
2
Properties=species:S:1:pos:R:3:forces:R:3 energy=-4.866304706717977 pbc="F F F"
Ce       0.00000000       0.00000000       0.00000000       0.00000000       0.00000000       2.26949286
Ce       0.00000000       0.00000000       3.41333333       0.00000000       0.00000000      -2.26949286
2
Properties=species:S:1:pos:R:3:forces:R:3 energy=-4.738085982263136 pbc="F F F"
Ce       0.00000000       0.00000000       0.00000000       0.00000000       0.00000000       2.09438586
Ce       0.00000000       0.00000000       3.47212121       0.00000000       0.00000000      -2.09438586
2
Properties=species:S:1:pos:R:3:forces:R:3 energy=-4.619738456512521 pbc="F F F"
Ce       0.00000000       0.00000000       0.00000000       0.00000000       0.00000000       1.93522263
Ce       0.00000000       0.00000000       3.53090909       0.00000000       0.00000000      -1.93522263
2
Properties=species:S:1:pos:R:3:forces:R:3 energy=-4.51013730395199 pbc="F F F"
Ce       0.00000000       0.00000000       0.00000000       0.00000000       0.00000000       1.79698992
Ce       0.00000000       0.00000000       3.58969697       0.00000000       0.00000000      -1.79698992
2
Properties=species:S:1:pos:R:3:forces:R:3 energy=-4.408042282300359 pbc="F F F"
Ce       0.00000000       0.00000000       0.00000000       0.00000000       0.00000000       1.67977536
Ce       0.00000000       0.00000000       3.64848485       0.00000000       0.00000000      -1.67977536
2
Properties=species:S:1:pos:R:3:forces:R:3 energy=-4.312249382564822 pbc="F F F"
Ce       0.00000000       0.00000000       0.00000000       0.00000000       0.00000000       1.58239210
Ce       0.00000000       0.00000000       3.70727273       0.00000000       0.00000000      -1.58239210
2
Properties=species:S:1:pos:R:3:forces:R:3 energy=-4.221636103228407 pbc="F F F"
Ce       0.00000000       0.00000000       0.00000000       0.00000000       0.00000000       1.50299978
Ce       0.00000000       0.00000000       3.76606061       0.00000000       0.00000000      -1.50299978
2
Properties=species:S:1:pos:R:3:forces:R:3 energy=-4.135264001917205 pbc="F F F"
Ce       0.00000000       0.00000000       0.00000000       0.00000000       0.00000000       1.43711734
Ce       0.00000000       0.00000000       3.82484848       0.00000000       0.00000000      -1.43711734
2
Properties=species:S:1:pos:R:3:forces:R:3 energy=-4.052566562905065 pbc="F F F"
Ce       0.00000000       0.00000000       0.00000000       0.00000000       0.00000000       1.37623513
Ce       0.00000000       0.00000000       3.88363636       0.00000000       0.00000000      -1.37623513
2
Properties=species:S:1:pos:R:3:forces:R:3 energy=-3.973564473251406 pbc="F F F"
Ce       0.00000000       0.00000000       0.00000000       0.00000000       0.00000000       1.30970490
Ce       0.00000000       0.00000000       3.94242424       0.00000000       0.00000000      -1.30970490
2
Properties=species:S:1:pos:R:3:forces:R:3 energy=-3.898854931979024 pbc="F F F"
Ce       0.00000000       0.00000000       0.00000000       0.00000000       0.00000000       1.22928035
Ce       0.00000000       0.00000000       4.00121212       0.00000000       0.00000000      -1.22928035
2
Properties=species:S:1:pos:R:3:forces:R:3 energy=-3.8293486490387703 pbc="F F F"
Ce       0.00000000       0.00000000       0.00000000       0.00000000       0.00000000       1.13291728
Ce       0.00000000       0.00000000       4.06000000       0.00000000       0.00000000      -1.13291728
2
Properties=species:S:1:pos:R:3:forces:R:3 energy=-3.7658762320745596 pbc="F F F"
Ce       0.00000000       0.00000000       0.00000000       0.00000000       0.00000000       1.02522469
Ce       0.00000000       0.00000000       4.11878788       0.00000000       0.00000000      -1.02522469
2
Properties=species:S:1:pos:R:3:forces:R:3 energy=-3.708860848801645 pbc="F F F"
Ce       0.00000000       0.00000000       0.00000000       0.00000000       0.00000000       0.91476232
Ce       0.00000000       0.00000000       4.17757576       0.00000000       0.00000000      -0.91476232
2
Properties=species:S:1:pos:R:3:forces:R:3 energy=-3.658198774546754 pbc="F F F"
Ce       0.00000000       0.00000000       0.00000000       0.00000000       0.00000000       0.81046182
Ce       0.00000000       0.00000000       4.23636364       0.00000000       0.00000000      -0.81046182
2
Properties=species:S:1:pos:R:3:forces:R:3 energy=-3.613314244360392 pbc="F F F"
Ce       0.00000000       0.00000000       0.00000000       0.00000000       0.00000000       0.71908247
Ce       0.00000000       0.00000000       4.29515152       0.00000000       0.00000000      -0.71908247
2
Properties=species:S:1:pos:R:3:forces:R:3 energy=-3.5733258691850556 pbc="F F F"
Ce       0.00000000       0.00000000       0.00000000       0.00000000       0.00000000       0.64427799
Ce       0.00000000       0.00000000       4.35393939       0.00000000       0.00000000      -0.64427799
2
Properties=species:S:1:pos:R:3:forces:R:3 energy=-3.537224265616218 pbc="F F F"
Ce       0.00000000       0.00000000       0.00000000       0.00000000       0.00000000       0.58670855
Ce       0.00000000       0.00000000       4.41272727       0.00000000       0.00000000      -0.58670855
2
Properties=species:S:1:pos:R:3:forces:R:3 energy=-3.504036108475596 pbc="F F F"
Ce       0.00000000       0.00000000       0.00000000       0.00000000       0.00000000       0.54471773
Ce       0.00000000       0.00000000       4.47151515       0.00000000       0.00000000      -0.54471773
2
Properties=species:S:1:pos:R:3:forces:R:3 energy=-3.4729354659519465 pbc="F F F"
Ce       0.00000000       0.00000000       0.00000000       0.00000000       0.00000000       0.51509464
Ce       0.00000000       0.00000000       4.53030303       0.00000000       0.00000000      -0.51509464
2
Properties=species:S:1:pos:R:3:forces:R:3 energy=-3.443308652622401 pbc="F F F"
Ce       0.00000000       0.00000000       0.00000000       0.00000000       0.00000000       0.49391338
Ce       0.00000000       0.00000000       4.58909091       0.00000000       0.00000000      -0.49391338
2
Properties=species:S:1:pos:R:3:forces:R:3 energy=-3.4147728577798606 pbc="F F F"
Ce       0.00000000       0.00000000       0.00000000       0.00000000       0.00000000       0.47739899
Ce       0.00000000       0.00000000       4.64787879       0.00000000       0.00000000      -0.47739899
2
Properties=species:S:1:pos:R:3:forces:R:3 energy=-3.3871429925792116 pbc="F F F"
Ce       0.00000000       0.00000000       0.00000000       0.00000000       0.00000000       0.46269619
Ce       0.00000000       0.00000000       4.70666667       0.00000000       0.00000000      -0.46269619
2
Properties=species:S:1:pos:R:3:forces:R:3 energy=-3.3603625644884954 pbc="F F F"
Ce       0.00000000       0.00000000       0.00000000       0.00000000       0.00000000       0.44849858
Ce       0.00000000       0.00000000       4.76545455       0.00000000       0.00000000      -0.44849858
2
Properties=species:S:1:pos:R:3:forces:R:3 energy=-3.334388762701604 pbc="F F F"
Ce       0.00000000       0.00000000       0.00000000       0.00000000       0.00000000       0.43543476
Ce       0.00000000       0.00000000       4.82424242       0.00000000       0.00000000      -0.43543476
2
Properties=species:S:1:pos:R:3:forces:R:3 energy=-3.3090956807860104 pbc="F F F"
Ce       0.00000000       0.00000000       0.00000000       0.00000000       0.00000000       0.42605785
Ce       0.00000000       0.00000000       4.88303030       0.00000000       0.00000000      -0.42605785
2
Properties=species:S:1:pos:R:3:forces:R:3 energy=-3.284148643165092 pbc="F F F"
Ce       0.00000000       0.00000000       0.00000000       0.00000000       0.00000000       0.42416462
Ce       0.00000000       0.00000000       4.94181818       0.00000000       0.00000000      -0.42416462
2
Properties=species:S:1:pos:R:3:forces:R:3 energy=-3.25900805466144 pbc="F F F"
Ce       0.00000000       0.00000000       0.00000000       0.00000000       0.00000000       0.43315759
Ce       0.00000000       0.00000000       5.00060606       0.00000000       0.00000000      -0.43315759
2
Properties=species:S:1:pos:R:3:forces:R:3 energy=-3.232987086705626 pbc="F F F"
Ce       0.00000000       0.00000000       0.00000000       0.00000000       0.00000000       0.45381156
Ce       0.00000000       0.00000000       5.05939394       0.00000000       0.00000000      -0.45381156
2
Properties=species:S:1:pos:R:3:forces:R:3 energy=-3.205493910612567 pbc="F F F"
Ce       0.00000000       0.00000000       0.00000000       0.00000000       0.00000000       0.48229042
Ce       0.00000000       0.00000000       5.11818182       0.00000000       0.00000000      -0.48229042
2
Properties=species:S:1:pos:R:3:forces:R:3 energy=-3.1763020547467624 pbc="F F F"
Ce       0.00000000       0.00000000       0.00000000       0.00000000       0.00000000       0.50965464
Ce       0.00000000       0.00000000       5.17696970       0.00000000       0.00000000      -0.50965464
2
Properties=species:S:1:pos:R:3:forces:R:3 energy=-3.1458403357696794 pbc="F F F"
Ce       0.00000000       0.00000000       0.00000000       0.00000000       0.00000000       0.52332240
Ce       0.00000000       0.00000000       5.23575758       0.00000000       0.00000000      -0.52332240
2
Properties=species:S:1:pos:R:3:forces:R:3 energy=-3.115272700353353 pbc="F F F"
Ce       0.00000000       0.00000000       0.00000000       0.00000000       0.00000000       0.51187694
Ce       0.00000000       0.00000000       5.29454545       0.00000000       0.00000000      -0.51187694
2
Properties=species:S:1:pos:R:3:forces:R:3 energy=-3.0861479977911537 pbc="F F F"
Ce       0.00000000       0.00000000       0.00000000       0.00000000       0.00000000       0.47610673
Ce       0.00000000       0.00000000       5.35333333       0.00000000       0.00000000      -0.47610673
2
Properties=species:S:1:pos:R:3:forces:R:3 energy=-3.059350685575959 pbc="F F F"
Ce       0.00000000       0.00000000       0.00000000       0.00000000       0.00000000       0.43752360
Ce       0.00000000       0.00000000       5.41212121       0.00000000       0.00000000      -0.43752360
2
Properties=species:S:1:pos:R:3:forces:R:3 energy=-3.034382685713414 pbc="F F F"
Ce       0.00000000       0.00000000       0.00000000       0.00000000       0.00000000       0.41373119
Ce       0.00000000       0.00000000       5.47090909       0.00000000       0.00000000      -0.41373119
2
Properties=species:S:1:pos:R:3:forces:R:3 energy=-3.010795805129084 pbc="F F F"
Ce       0.00000000       0.00000000       0.00000000       0.00000000       0.00000000       0.38523629
Ce       0.00000000       0.00000000       5.52969697       0.00000000       0.00000000      -0.38523629
2
Properties=species:S:1:pos:R:3:forces:R:3 energy=-2.9895495199729707 pbc="F F F"
Ce       0.00000000       0.00000000       0.00000000       0.00000000       0.00000000       0.33520949
Ce       0.00000000       0.00000000       5.58848485       0.00000000       0.00000000      -0.33520949
2
Properties=species:S:1:pos:R:3:forces:R:3 energy=-2.9712135062734437 pbc="F F F"
Ce       0.00000000       0.00000000       0.00000000       0.00000000       0.00000000       0.29534438
Ce       0.00000000       0.00000000       5.64727273       0.00000000       0.00000000      -0.29534438
2
Properties=species:S:1:pos:R:3:forces:R:3 energy=-2.9536020365401967 pbc="F F F"
Ce       0.00000000       0.00000000       0.00000000       0.00000000       0.00000000       0.31553298
Ce       0.00000000       0.00000000       5.70606061       0.00000000       0.00000000      -0.31553298
2
Properties=species:S:1:pos:R:3:forces:R:3 energy=-2.9332450271490362 pbc="F F F"
Ce       0.00000000       0.00000000       0.00000000       0.00000000       0.00000000       0.37326801
Ce       0.00000000       0.00000000       5.76484848       0.00000000       0.00000000      -0.37326801
2
Properties=species:S:1:pos:R:3:forces:R:3 energy=-2.9113014995132946 pbc="F F F"
Ce       0.00000000       0.00000000       0.00000000       0.00000000       0.00000000       0.35238448
Ce       0.00000000       0.00000000       5.82363636       0.00000000       0.00000000      -0.35238448
2
Properties=species:S:1:pos:R:3:forces:R:3 energy=-2.89426790742714 pbc="F F F"
Ce       0.00000000       0.00000000       0.00000000       0.00000000       0.00000000       0.21644372
Ce       0.00000000       0.00000000       5.88242424       0.00000000       0.00000000      -0.21644372
2
Properties=species:S:1:pos:R:3:forces:R:3 energy=-2.88611032870696 pbc="F F F"
Ce       0.00000000       0.00000000       0.00000000       0.00000000       0.00000000       0.06785452
Ce       0.00000000       0.00000000       5.94121212       0.00000000       0.00000000      -0.06785452
2
Properties=species:S:1:pos:R:3:forces:R:3 energy=-2.884488836894485 pbc="F F F"
Ce       0.00000000       0.00000000       0.00000000       0.00000000       0.00000000       0.00735437
Ce       0.00000000       0.00000000       6.00000000       0.00000000       0.00000000      -0.00735437
