2
Properties=species:S:1:pos:R:3:forces:R:3 energy=53297.51063228241 pbc="F F F"
Ce       0.00000000       0.00000000       0.00000000       0.00000000       0.00000000 -1308120.37500000
Ce       0.00000000       0.00000000       0.10000000       0.00000000       0.00000000 1308120.37500000
2
Properties=species:S:1:pos:R:3:forces:R:3 energy=15210.173718219909 pbc="F F F"
Ce       0.00000000       0.00000000       0.00000000       0.00000000       0.00000000 -278697.87500000
Ce       0.00000000       0.00000000       0.15959596       0.00000000       0.00000000  278697.87500000
2
Properties=species:S:1:pos:R:3:forces:R:3 energy=5659.505749469909 pbc="F F F"
Ce       0.00000000       0.00000000       0.00000000       0.00000000       0.00000000  -85826.05468750
Ce       0.00000000       0.00000000       0.21919192       0.00000000       0.00000000   85826.05468750
2
Properties=species:S:1:pos:R:3:forces:R:3 energy=2434.269909626159 pbc="F F F"
Ce       0.00000000       0.00000000       0.00000000       0.00000000       0.00000000  -32334.19531250
Ce       0.00000000       0.00000000       0.27878788       0.00000000       0.00000000   32334.19531250
2
Properties=species:S:1:pos:R:3:forces:R:3 energy=1149.714245563659 pbc="F F F"
Ce       0.00000000       0.00000000       0.00000000       0.00000000       0.00000000  -13736.04980469
Ce       0.00000000       0.00000000       0.33838384       0.00000000       0.00000000   13736.04980469
2
Properties=species:S:1:pos:R:3:forces:R:3 energy=583.5099608956901 pbc="F F F"
Ce       0.00000000       0.00000000       0.00000000       0.00000000       0.00000000   -6321.89746094
Ce       0.00000000       0.00000000       0.39797980       0.00000000       0.00000000    6321.89746094
2
Properties=species:S:1:pos:R:3:forces:R:3 energy=315.60331416875846 pbc="F F F"
Ce       0.00000000       0.00000000       0.00000000       0.00000000       0.00000000   -3091.36303711
Ce       0.00000000       0.00000000       0.45757576       0.00000000       0.00000000    3091.36303711
2
Properties=species:S:1:pos:R:3:forces:R:3 energy=181.57340694377987 pbc="F F F"
Ce       0.00000000       0.00000000       0.00000000       0.00000000       0.00000000   -1589.11816406
Ce       0.00000000       0.00000000       0.51717172       0.00000000       0.00000000    1589.11816406
2
Properties=species:S:1:pos:R:3:forces:R:3 energy=111.32315518009598 pbc="F F F"
Ce       0.00000000       0.00000000       0.00000000       0.00000000       0.00000000    -851.99353027
Ce       0.00000000       0.00000000       0.57676768       0.00000000       0.00000000     851.99353027
2
Properties=species:S:1:pos:R:3:forces:R:3 energy=73.0565231063535 pbc="F F F"
Ce       0.00000000       0.00000000       0.00000000       0.00000000       0.00000000    -472.36859131
Ce       0.00000000       0.00000000       0.63636364       0.00000000       0.00000000     472.36859131
2
Properties=species:S:1:pos:R:3:forces:R:3 energy=51.602131637948695 pbc="F F F"
Ce       0.00000000       0.00000000       0.00000000       0.00000000       0.00000000    -267.80770874
Ce       0.00000000       0.00000000       0.69595960       0.00000000       0.00000000     267.80770874
2
Properties=species:S:1:pos:R:3:forces:R:3 energy=39.3815620431921 pbc="F F F"
Ce       0.00000000       0.00000000       0.00000000       0.00000000       0.00000000    -152.92529297
Ce       0.00000000       0.00000000       0.75555556       0.00000000       0.00000000     152.92529297
2
Properties=species:S:1:pos:R:3:forces:R:3 energy=32.429814172663654 pbc="F F F"
Ce       0.00000000       0.00000000       0.00000000       0.00000000       0.00000000     -86.25000000
Ce       0.00000000       0.00000000       0.81515152       0.00000000       0.00000000      86.25000000
2
Properties=species:S:1:pos:R:3:forces:R:3 energy=28.562193740953962 pbc="F F F"
Ce       0.00000000       0.00000000       0.00000000       0.00000000       0.00000000     -47.02600098
Ce       0.00000000       0.00000000       0.87474747       0.00000000       0.00000000      47.02600098
2
Properties=species:S:1:pos:R:3:forces:R:3 energy=26.493342322275762 pbc="F F F"
Ce       0.00000000       0.00000000       0.00000000       0.00000000       0.00000000     -24.64658356
Ce       0.00000000       0.00000000       0.93434343       0.00000000       0.00000000      24.64658356
2
Properties=species:S:1:pos:R:3:forces:R:3 energy=25.39784144592293 pbc="F F F"
Ce       0.00000000       0.00000000       0.00000000       0.00000000       0.00000000     -13.78471565
Ce       0.00000000       0.00000000       0.99393939       0.00000000       0.00000000      13.78471565
2
Properties=species:S:1:pos:R:3:forces:R:3 energy=24.664464084292554 pbc="F F F"
Ce       0.00000000       0.00000000       0.00000000       0.00000000       0.00000000     -12.32725906
Ce       0.00000000       0.00000000       1.05353535       0.00000000       0.00000000      12.32725906
2
Properties=species:S:1:pos:R:3:forces:R:3 energy=23.76755259307951 pbc="F F F"
Ce       0.00000000       0.00000000       0.00000000       0.00000000       0.00000000     -18.81906700
Ce       0.00000000       0.00000000       1.11313131       0.00000000       0.00000000      18.81906700
2
Properties=species:S:1:pos:R:3:forces:R:3 energy=22.34695568455807 pbc="F F F"
Ce       0.00000000       0.00000000       0.00000000       0.00000000       0.00000000     -29.10419464
Ce       0.00000000       0.00000000       1.17272727       0.00000000       0.00000000      29.10419464
2
Properties=species:S:1:pos:R:3:forces:R:3 energy=20.303422577942484 pbc="F F F"
Ce       0.00000000       0.00000000       0.00000000       0.00000000       0.00000000     -39.20669556
Ce       0.00000000       0.00000000       1.23232323       0.00000000       0.00000000      39.20669556
2
Properties=species:S:1:pos:R:3:forces:R:3 energy=17.71227257606518 pbc="F F F"
Ce       0.00000000       0.00000000       0.00000000       0.00000000       0.00000000     -47.47332382
Ce       0.00000000       0.00000000       1.29191919       0.00000000       0.00000000      47.47332382
2
Properties=species:S:1:pos:R:3:forces:R:3 energy=14.6781523743367 pbc="F F F"
Ce       0.00000000       0.00000000       0.00000000       0.00000000       0.00000000     -53.94276428
Ce       0.00000000       0.00000000       1.35151515       0.00000000       0.00000000      53.94276428
2
Properties=species:S:1:pos:R:3:forces:R:3 energy=11.359674239877894 pbc="F F F"
Ce       0.00000000       0.00000000       0.00000000       0.00000000       0.00000000     -56.57472229
Ce       0.00000000       0.00000000       1.41111111       0.00000000       0.00000000      56.57472229
2
Properties=species:S:1:pos:R:3:forces:R:3 energy=8.041468963979533 pbc="F F F"
Ce       0.00000000       0.00000000       0.00000000       0.00000000       0.00000000     -53.96204758
Ce       0.00000000       0.00000000       1.47070707       0.00000000       0.00000000      53.96204758
2
Properties=species:S:1:pos:R:3:forces:R:3 energy=5.001317106405019 pbc="F F F"
Ce       0.00000000       0.00000000       0.00000000       0.00000000       0.00000000     -47.68201828
Ce       0.00000000       0.00000000       1.53030303       0.00000000       0.00000000      47.68201828
2
Properties=species:S:1:pos:R:3:forces:R:3 energy=2.379652714463338 pbc="F F F"
Ce       0.00000000       0.00000000       0.00000000       0.00000000       0.00000000     -40.25748825
Ce       0.00000000       0.00000000       1.58989899       0.00000000       0.00000000      40.25748825
2
Properties=species:S:1:pos:R:3:forces:R:3 energy=0.20637255439381702 pbc="F F F"
Ce       0.00000000       0.00000000       0.00000000       0.00000000       0.00000000     -32.59260941
Ce       0.00000000       0.00000000       1.64949495       0.00000000       0.00000000      32.59260941
2
Properties=species:S:1:pos:R:3:forces:R:3 energy=-1.4881049445453163 pbc="F F F"
Ce       0.00000000       0.00000000       0.00000000       0.00000000       0.00000000     -24.15219307
Ce       0.00000000       0.00000000       1.70909091       0.00000000       0.00000000      24.15219307
2
Properties=species:S:1:pos:R:3:forces:R:3 energy=-2.680614289442418 pbc="F F F"
Ce       0.00000000       0.00000000       0.00000000       0.00000000       0.00000000     -16.17774391
Ce       0.00000000       0.00000000       1.76868687       0.00000000       0.00000000      16.17774391
2
Properties=species:S:1:pos:R:3:forces:R:3 energy=-3.4707402443308637 pbc="F F F"
Ce       0.00000000       0.00000000       0.00000000       0.00000000       0.00000000     -10.81325531
Ce       0.00000000       0.00000000       1.82828283       0.00000000       0.00000000      10.81325531
2
Properties=species:S:1:pos:R:3:forces:R:3 energy=-4.013025218917173 pbc="F F F"
Ce       0.00000000       0.00000000       0.00000000       0.00000000       0.00000000      -7.63302660
Ce       0.00000000       0.00000000       1.88787879       0.00000000       0.00000000       7.63302660
2
Properties=species:S:1:pos:R:3:forces:R:3 energy=-4.4028237179696355 pbc="F F F"
Ce       0.00000000       0.00000000       0.00000000       0.00000000       0.00000000      -5.61768675
Ce       0.00000000       0.00000000       1.94747475       0.00000000       0.00000000       5.61768675
2
Properties=species:S:1:pos:R:3:forces:R:3 energy=-4.703493271344746 pbc="F F F"
Ce       0.00000000       0.00000000       0.00000000       0.00000000       0.00000000      -4.64271355
Ce       0.00000000       0.00000000       2.00707071       0.00000000       0.00000000       4.64271355
2
Properties=species:S:1:pos:R:3:forces:R:3 energy=-4.972555157333352 pbc="F F F"
Ce       0.00000000       0.00000000       0.00000000       0.00000000       0.00000000      -4.47803545
Ce       0.00000000       0.00000000       2.06666667       0.00000000       0.00000000       4.47803545
2
Properties=species:S:1:pos:R:3:forces:R:3 energy=-5.242221086791463 pbc="F F F"
Ce       0.00000000       0.00000000       0.00000000       0.00000000       0.00000000      -4.57001352
Ce       0.00000000       0.00000000       2.12626263       0.00000000       0.00000000       4.57001352
2
Properties=species:S:1:pos:R:3:forces:R:3 energy=-5.513338796990809 pbc="F F F"
Ce       0.00000000       0.00000000       0.00000000       0.00000000       0.00000000      -4.47356272
Ce       0.00000000       0.00000000       2.18585859       0.00000000       0.00000000       4.47356272
2
Properties=species:S:1:pos:R:3:forces:R:3 energy=-5.767865631672459 pbc="F F F"
Ce       0.00000000       0.00000000       0.00000000       0.00000000       0.00000000      -4.00490189
Ce       0.00000000       0.00000000       2.24545455       0.00000000       0.00000000       4.00490189
2
Properties=species:S:1:pos:R:3:forces:R:3 energy=-5.984534078540908 pbc="F F F"
Ce       0.00000000       0.00000000       0.00000000       0.00000000       0.00000000      -3.23099613
Ce       0.00000000       0.00000000       2.30505051       0.00000000       0.00000000       3.23099613
2
Properties=species:S:1:pos:R:3:forces:R:3 energy=-6.151014457826189 pbc="F F F"
Ce       0.00000000       0.00000000       0.00000000       0.00000000       0.00000000      -2.35697293
Ce       0.00000000       0.00000000       2.36464646       0.00000000       0.00000000       2.35697293
2
Properties=species:S:1:pos:R:3:forces:R:3 energy=-6.267059642751379 pbc="F F F"
Ce       0.00000000       0.00000000       0.00000000       0.00000000       0.00000000      -1.55937898
Ce       0.00000000       0.00000000       2.42424242       0.00000000       0.00000000       1.55937898
2
Properties=species:S:1:pos:R:3:forces:R:3 energy=-6.339875469738357 pbc="F F F"
Ce       0.00000000       0.00000000       0.00000000       0.00000000       0.00000000      -0.90997046
Ce       0.00000000       0.00000000       2.48383838       0.00000000       0.00000000       0.90997046
2
Properties=species:S:1:pos:R:3:forces:R:3 energy=-6.378350040864032 pbc="F F F"
Ce       0.00000000       0.00000000       0.00000000       0.00000000       0.00000000      -0.40197045
Ce       0.00000000       0.00000000       2.54343434       0.00000000       0.00000000       0.40197045
2
Properties=species:S:1:pos:R:3:forces:R:3 energy=-6.389836980391107 pbc="F F F"
Ce       0.00000000       0.00000000       0.00000000       0.00000000       0.00000000       0.00292755
Ce       0.00000000       0.00000000       2.60303030       0.00000000       0.00000000      -0.00292755
2
Properties=species:S:1:pos:R:3:forces:R:3 energy=-6.379164579824615 pbc="F F F"
Ce       0.00000000       0.00000000       0.00000000       0.00000000       0.00000000       0.34905893
Ce       0.00000000       0.00000000       2.66262626       0.00000000       0.00000000      -0.34905893
2
Properties=species:S:1:pos:R:3:forces:R:3 energy=-6.34859095146039 pbc="F F F"
Ce       0.00000000       0.00000000       0.00000000       0.00000000       0.00000000       0.67682809
Ce       0.00000000       0.00000000       2.72222222       0.00000000       0.00000000      -0.67682809
2
Properties=species:S:1:pos:R:3:forces:R:3 energy=-6.298270389380983 pbc="F F F"
Ce       0.00000000       0.00000000       0.00000000       0.00000000       0.00000000       1.01513886
Ce       0.00000000       0.00000000       2.78181818       0.00000000       0.00000000      -1.01513886
2
Properties=species:S:1:pos:R:3:forces:R:3 energy=-6.227176529361768 pbc="F F F"
Ce       0.00000000       0.00000000       0.00000000       0.00000000       0.00000000       1.37370646
Ce       0.00000000       0.00000000       2.84141414       0.00000000       0.00000000      -1.37370646
2
Properties=species:S:1:pos:R:3:forces:R:3 energy=-6.1343554610835875 pbc="F F F"
Ce       0.00000000       0.00000000       0.00000000       0.00000000       0.00000000       1.74082661
Ce       0.00000000       0.00000000       2.90101010       0.00000000       0.00000000      -1.74082661
2
Properties=species:S:1:pos:R:3:forces:R:3 energy=-6.020051078081315 pbc="F F F"
Ce       0.00000000       0.00000000       0.00000000       0.00000000       0.00000000       2.08933830
Ce       0.00000000       0.00000000       2.96060606       0.00000000       0.00000000      -2.08933830
2
Properties=species:S:1:pos:R:3:forces:R:3 energy=-5.8863378279814995 pbc="F F F"
Ce       0.00000000       0.00000000       0.00000000       0.00000000       0.00000000       2.38687801
Ce       0.00000000       0.00000000       3.02020202       0.00000000       0.00000000      -2.38687801
2
Properties=species:S:1:pos:R:3:forces:R:3 energy=-5.737133593441279 pbc="F F F"
Ce       0.00000000       0.00000000       0.00000000       0.00000000       0.00000000       2.60521054
Ce       0.00000000       0.00000000       3.07979798       0.00000000       0.00000000      -2.60521054
2
Properties=species:S:1:pos:R:3:forces:R:3 energy=-5.577751462051853 pbc="F F F"
Ce       0.00000000       0.00000000       0.00000000       0.00000000       0.00000000       2.72676730
Ce       0.00000000       0.00000000       3.13939394       0.00000000       0.00000000      -2.72676730
2
Properties=species:S:1:pos:R:3:forces:R:3 energy=-5.414121532848022 pbc="F F F"
Ce       0.00000000       0.00000000       0.00000000       0.00000000       0.00000000       2.74837661
Ce       0.00000000       0.00000000       3.19898990       0.00000000       0.00000000      -2.74837661
2
Properties=species:S:1:pos:R:3:forces:R:3 energy=-5.251934025679702 pbc="F F F"
Ce       0.00000000       0.00000000       0.00000000       0.00000000       0.00000000       2.68139935
Ce       0.00000000       0.00000000       3.25858586       0.00000000       0.00000000      -2.68139935
2
Properties=species:S:1:pos:R:3:forces:R:3 energy=-5.095834875932968 pbc="F F F"
Ce       0.00000000       0.00000000       0.00000000       0.00000000       0.00000000       2.54845881
Ce       0.00000000       0.00000000       3.31818182       0.00000000       0.00000000      -2.54845881
2
Properties=species:S:1:pos:R:3:forces:R:3 energy=-4.948926943855635 pbc="F F F"
Ce       0.00000000       0.00000000       0.00000000       0.00000000       0.00000000       2.37782359
Ce       0.00000000       0.00000000       3.37777778       0.00000000       0.00000000      -2.37782359
2
Properties=species:S:1:pos:R:3:forces:R:3 energy=-4.812624118225966 pbc="F F F"
Ce       0.00000000       0.00000000       0.00000000       0.00000000       0.00000000       2.19660640
Ce       0.00000000       0.00000000       3.43737374       0.00000000       0.00000000      -2.19660640
2
Properties=species:S:1:pos:R:3:forces:R:3 energy=-4.686916429893075 pbc="F F F"
Ce       0.00000000       0.00000000       0.00000000       0.00000000       0.00000000       2.02471185
Ce       0.00000000       0.00000000       3.49696970       0.00000000       0.00000000      -2.02471185
2
Properties=species:S:1:pos:R:3:forces:R:3 energy=-4.57090172520832 pbc="F F F"
Ce       0.00000000       0.00000000       0.00000000       0.00000000       0.00000000       1.87225127
Ce       0.00000000       0.00000000       3.55656566       0.00000000       0.00000000      -1.87225127
2
Properties=species:S:1:pos:R:3:forces:R:3 energy=-4.463322112580021 pbc="F F F"
Ce       0.00000000       0.00000000       0.00000000       0.00000000       0.00000000       1.74168658
Ce       0.00000000       0.00000000       3.61616162       0.00000000       0.00000000      -1.74168658
2
Properties=species:S:1:pos:R:3:forces:R:3 energy=-4.362888206989298 pbc="F F F"
Ce       0.00000000       0.00000000       0.00000000       0.00000000       0.00000000       1.63221025
Ce       0.00000000       0.00000000       3.67575758       0.00000000       0.00000000      -1.63221025
2
Properties=species:S:1:pos:R:3:forces:R:3 energy=-4.268383569999012 pbc="F F F"
Ce       0.00000000       0.00000000       0.00000000       0.00000000       0.00000000       1.54240692
Ce       0.00000000       0.00000000       3.73535354       0.00000000       0.00000000      -1.54240692
2
Properties=species:S:1:pos:R:3:forces:R:3 energy=-4.178710002948148 pbc="F F F"
Ce       0.00000000       0.00000000       0.00000000       0.00000000       0.00000000       1.46937513
Ce       0.00000000       0.00000000       3.79494949       0.00000000       0.00000000      -1.46937513
2
Properties=species:S:1:pos:R:3:forces:R:3 energy=-4.093043946371881 pbc="F F F"
Ce       0.00000000       0.00000000       0.00000000       0.00000000       0.00000000       1.40640080
Ce       0.00000000       0.00000000       3.85454545       0.00000000       0.00000000      -1.40640080
2
Properties=species:S:1:pos:R:3:forces:R:3 energy=-4.011086129596478 pbc="F F F"
Ce       0.00000000       0.00000000       0.00000000       0.00000000       0.00000000       1.34305310
Ce       0.00000000       0.00000000       3.91414141       0.00000000       0.00000000      -1.34305310
2
Properties=species:S:1:pos:R:3:forces:R:3 energy=-3.9331805099320403 pbc="F F F"
Ce       0.00000000       0.00000000       0.00000000       0.00000000       0.00000000       1.26889467
Ce       0.00000000       0.00000000       3.97373737       0.00000000       0.00000000      -1.26889467
2
Properties=species:S:1:pos:R:3:forces:R:3 energy=-3.860172457967457 pbc="F F F"
Ce       0.00000000       0.00000000       0.00000000       0.00000000       0.00000000       1.17844045
Ce       0.00000000       0.00000000       4.03333333       0.00000000       0.00000000      -1.17844045
2
Properties=species:S:1:pos:R:3:forces:R:3 energy=-3.793011766877527 pbc="F F F"
Ce       0.00000000       0.00000000       0.00000000       0.00000000       0.00000000       1.07348800
Ce       0.00000000       0.00000000       4.09292929       0.00000000       0.00000000      -1.07348800
2
Properties=species:S:1:pos:R:3:forces:R:3 energy=-3.7323599912783845 pbc="F F F"
Ce       0.00000000       0.00000000       0.00000000       0.00000000       0.00000000       0.96156961
Ce       0.00000000       0.00000000       4.15252525       0.00000000       0.00000000      -0.96156961
2
Properties=species:S:1:pos:R:3:forces:R:3 energy=-3.6783494155474896 pbc="F F F"
Ce       0.00000000       0.00000000       0.00000000       0.00000000       0.00000000       0.85222608
Ce       0.00000000       0.00000000       4.21212121       0.00000000       0.00000000      -0.85222608
2
Properties=species:S:1:pos:R:3:forces:R:3 energy=-3.6305656460995337 pbc="F F F"
Ce       0.00000000       0.00000000       0.00000000       0.00000000       0.00000000       0.75365567
Ce       0.00000000       0.00000000       4.27171717       0.00000000       0.00000000      -0.75365567
2
Properties=species:S:1:pos:R:3:forces:R:3 energy=-3.5882007030407106 pbc="F F F"
Ce       0.00000000       0.00000000       0.00000000       0.00000000       0.00000000       0.67100626
Ce       0.00000000       0.00000000       4.33131313       0.00000000       0.00000000      -0.67100626
2
Properties=species:S:1:pos:R:3:forces:R:3 energy=-3.5502325335196687 pbc="F F F"
Ce       0.00000000       0.00000000       0.00000000       0.00000000       0.00000000       0.60612673
Ce       0.00000000       0.00000000       4.39090909       0.00000000       0.00000000      -0.60612673
2
Properties=species:S:1:pos:R:3:forces:R:3 energy=-3.515618628204587 pbc="F F F"
Ce       0.00000000       0.00000000       0.00000000       0.00000000       0.00000000       0.55811459
Ce       0.00000000       0.00000000       4.45050505       0.00000000       0.00000000      -0.55811459
2
Properties=species:S:1:pos:R:3:forces:R:3 energy=-3.483430983621966 pbc="F F F"
Ce       0.00000000       0.00000000       0.00000000       0.00000000       0.00000000       0.52412015
Ce       0.00000000       0.00000000       4.51010101       0.00000000       0.00000000      -0.52412015
2
Properties=species:S:1:pos:R:3:forces:R:3 energy=-3.452947160630824 pbc="F F F"
Ce       0.00000000       0.00000000       0.00000000       0.00000000       0.00000000       0.50021225
Ce       0.00000000       0.00000000       4.56969697       0.00000000       0.00000000      -0.50021225
2
Properties=species:S:1:pos:R:3:forces:R:3 energy=-3.4236901415070964 pbc="F F F"
Ce       0.00000000       0.00000000       0.00000000       0.00000000       0.00000000       0.48231253
Ce       0.00000000       0.00000000       4.62929293       0.00000000       0.00000000      -0.48231253
2
Properties=species:S:1:pos:R:3:forces:R:3 energy=-3.395408526946368 pbc="F F F"
Ce       0.00000000       0.00000000       0.00000000       0.00000000       0.00000000       0.46706274
Ce       0.00000000       0.00000000       4.68888889       0.00000000       0.00000000      -0.46706274
2
Properties=species:S:1:pos:R:3:forces:R:3 energy=-3.3680071752642884 pbc="F F F"
Ce       0.00000000       0.00000000       0.00000000       0.00000000       0.00000000       0.45254526
Ce       0.00000000       0.00000000       4.74848485       0.00000000       0.00000000      -0.45254526
2
Properties=species:S:1:pos:R:3:forces:R:3 energy=-3.3414544528175685 pbc="F F F"
Ce       0.00000000       0.00000000       0.00000000       0.00000000       0.00000000       0.43879807
Ce       0.00000000       0.00000000       4.80808081       0.00000000       0.00000000      -0.43879807
2
Properties=species:S:1:pos:R:3:forces:R:3 energy=-3.315648978609107 pbc="F F F"
Ce       0.00000000       0.00000000       0.00000000       0.00000000       0.00000000       0.42794886
Ce       0.00000000       0.00000000       4.86767677       0.00000000       0.00000000      -0.42794886
2
Properties=species:S:1:pos:R:3:forces:R:3 energy=-3.2903140111930917 pbc="F F F"
Ce       0.00000000       0.00000000       0.00000000       0.00000000       0.00000000       0.42372558
Ce       0.00000000       0.00000000       4.92727273       0.00000000       0.00000000      -0.42372558
2
Properties=species:S:1:pos:R:3:forces:R:3 energy=-3.2649347335013195 pbc="F F F"
Ce       0.00000000       0.00000000       0.00000000       0.00000000       0.00000000       0.42997918
Ce       0.00000000       0.00000000       4.98686869       0.00000000       0.00000000      -0.42997918
2
Properties=species:S:1:pos:R:3:forces:R:3 energy=-3.2388226480343074 pbc="F F F"
Ce       0.00000000       0.00000000       0.00000000       0.00000000       0.00000000       0.44837755
Ce       0.00000000       0.00000000       5.04646465       0.00000000       0.00000000      -0.44837755
2
Properties=species:S:1:pos:R:3:forces:R:3 energy=-3.2113041374469637 pbc="F F F"
Ce       0.00000000       0.00000000       0.00000000       0.00000000       0.00000000       0.47614744
Ce       0.00000000       0.00000000       5.10606061       0.00000000       0.00000000      -0.47614744
2
Properties=species:S:1:pos:R:3:forces:R:3 energy=-3.1820392618670676 pbc="F F F"
Ce       0.00000000       0.00000000       0.00000000       0.00000000       0.00000000       0.50505096
Ce       0.00000000       0.00000000       5.16565657       0.00000000       0.00000000      -0.50505096
2
Properties=species:S:1:pos:R:3:forces:R:3 energy=-3.1513309656176096 pbc="F F F"
Ce       0.00000000       0.00000000       0.00000000       0.00000000       0.00000000       0.52247596
Ce       0.00000000       0.00000000       5.22525253       0.00000000       0.00000000      -0.52247596
2
Properties=species:S:1:pos:R:3:forces:R:3 energy=-3.120253807410395 pbc="F F F"
Ce       0.00000000       0.00000000       0.00000000       0.00000000       0.00000000       0.51570827
Ce       0.00000000       0.00000000       5.28484848       0.00000000       0.00000000      -0.51570827
2
Properties=species:S:1:pos:R:3:forces:R:3 energy=-3.0904057824443094 pbc="F F F"
Ce       0.00000000       0.00000000       0.00000000       0.00000000       0.00000000       0.48241749
Ce       0.00000000       0.00000000       5.34444444       0.00000000       0.00000000      -0.48241749
2
Properties=species:S:1:pos:R:3:forces:R:3 energy=-3.062898586460692 pbc="F F F"
Ce       0.00000000       0.00000000       0.00000000       0.00000000       0.00000000       0.44199625
Ce       0.00000000       0.00000000       5.40404040       0.00000000       0.00000000      -0.44199625
2
Properties=species:S:1:pos:R:3:forces:R:3 energy=-3.0373917836633075 pbc="F F F"
Ce       0.00000000       0.00000000       0.00000000       0.00000000       0.00000000       0.41626355
Ce       0.00000000       0.00000000       5.46363636       0.00000000       0.00000000      -0.41626355
2
Properties=species:S:1:pos:R:3:forces:R:3 energy=-3.013305381436897 pbc="F F F"
Ce       0.00000000       0.00000000       0.00000000       0.00000000       0.00000000       0.38949060
Ce       0.00000000       0.00000000       5.52323232       0.00000000       0.00000000      -0.38949060
2
Properties=species:S:1:pos:R:3:forces:R:3 energy=-2.9914615759311443 pbc="F F F"
Ce       0.00000000       0.00000000       0.00000000       0.00000000       0.00000000       0.34042129
Ce       0.00000000       0.00000000       5.58282828       0.00000000       0.00000000      -0.34042129
2
Properties=species:S:1:pos:R:3:forces:R:3 energy=-2.972642043224661 pbc="F F F"
Ce       0.00000000       0.00000000       0.00000000       0.00000000       0.00000000       0.29689124
Ce       0.00000000       0.00000000       5.64242424       0.00000000       0.00000000      -0.29689124
2
Properties=species:S:1:pos:R:3:forces:R:3 energy=-2.95485042195148 pbc="F F F"
Ce       0.00000000       0.00000000       0.00000000       0.00000000       0.00000000       0.31214595
Ce       0.00000000       0.00000000       5.70202020       0.00000000       0.00000000      -0.31214595
2
Properties=species:S:1:pos:R:3:forces:R:3 energy=-2.934497949887991 pbc="F F F"
Ce       0.00000000       0.00000000       0.00000000       0.00000000       0.00000000       0.37061414
Ce       0.00000000       0.00000000       5.76161616       0.00000000       0.00000000      -0.37061414
2
Properties=species:S:1:pos:R:3:forces:R:3 energy=-2.912194857187722 pbc="F F F"
Ce       0.00000000       0.00000000       0.00000000       0.00000000       0.00000000       0.35559714
Ce       0.00000000       0.00000000       5.82121212       0.00000000       0.00000000      -0.35559714
2
Properties=species:S:1:pos:R:3:forces:R:3 energy=-2.8946641578594763 pbc="F F F"
Ce       0.00000000       0.00000000       0.00000000       0.00000000       0.00000000       0.22089973
Ce       0.00000000       0.00000000       5.88080808       0.00000000       0.00000000      -0.22089973
2
Properties=species:S:1:pos:R:3:forces:R:3 energy=-2.886151873521238 pbc="F F F"
Ce       0.00000000       0.00000000       0.00000000       0.00000000       0.00000000       0.06951974
Ce       0.00000000       0.00000000       5.94040404       0.00000000       0.00000000      -0.06951974
2
Properties=species:S:1:pos:R:3:forces:R:3 energy=-2.884488836894485 pbc="F F F"
Ce       0.00000000       0.00000000       0.00000000       0.00000000       0.00000000       0.00735437
Ce       0.00000000       0.00000000       6.00000000       0.00000000       0.00000000      -0.00735437
