2
Properties=species:S:1:pos:R:3:forces:R:3 energy=1992.45227582783 pbc="F F F"
Cl       0.00000000       0.00000000       0.00000000       0.00000000       0.00000000  -26745.15820312
Cl       0.00000000       0.00000000       0.18000000       0.00000000       0.00000000   26745.15820312
2
Properties=species:S:1:pos:R:3:forces:R:3 energy=1002.3270927223613 pbc="F F F"
Cl       0.00000000       0.00000000       0.00000000       0.00000000       0.00000000  -10127.92089844
Cl       0.00000000       0.00000000       0.23878788       0.00000000       0.00000000   10127.92089844
2
Properties=species:S:1:pos:R:3:forces:R:3 energy=599.3039604044782 pbc="F F F"
Cl       0.00000000       0.00000000       0.00000000       0.00000000       0.00000000   -4483.00195312
Cl       0.00000000       0.00000000       0.29757576       0.00000000       0.00000000    4483.00195312
2
Properties=species:S:1:pos:R:3:forces:R:3 energy=412.2375846783919 pbc="F F F"
Cl       0.00000000       0.00000000       0.00000000       0.00000000       0.00000000   -2193.18261719
Cl       0.00000000       0.00000000       0.35636364       0.00000000       0.00000000    2193.18261719
2
Properties=species:S:1:pos:R:3:forces:R:3 energy=317.93619309583636 pbc="F F F"
Cl       0.00000000       0.00000000       0.00000000       0.00000000       0.00000000   -1141.58142090
Cl       0.00000000       0.00000000       0.41515152       0.00000000       0.00000000    1141.58142090
2
Properties=species:S:1:pos:R:3:forces:R:3 energy=267.7531792146668 pbc="F F F"
Cl       0.00000000       0.00000000       0.00000000       0.00000000       0.00000000    -626.91198730
Cl       0.00000000       0.00000000       0.47393939       0.00000000       0.00000000     626.91198730
2
Properties=species:S:1:pos:R:3:forces:R:3 energy=238.71797725482384 pbc="F F F"
Cl       0.00000000       0.00000000       0.00000000       0.00000000       0.00000000    -396.52120972
Cl       0.00000000       0.00000000       0.53272727       0.00000000       0.00000000     396.52120972
2
Properties=species:S:1:pos:R:3:forces:R:3 energy=218.34988960031075 pbc="F F F"
Cl       0.00000000       0.00000000       0.00000000       0.00000000       0.00000000    -308.52191162
Cl       0.00000000       0.00000000       0.59151515       0.00000000       0.00000000     308.52191162
2
Properties=species:S:1:pos:R:3:forces:R:3 energy=195.8799953812004 pbc="F F F"
Cl       0.00000000       0.00000000       0.00000000       0.00000000       0.00000000    -444.02172852
Cl       0.00000000       0.00000000       0.65030303       0.00000000       0.00000000     444.02172852
2
Properties=species:S:1:pos:R:3:forces:R:3 energy=170.31934199245225 pbc="F F F"
Cl       0.00000000       0.00000000       0.00000000       0.00000000       0.00000000    -431.00054932
Cl       0.00000000       0.00000000       0.70909091       0.00000000       0.00000000     431.00054932
2
Properties=species:S:1:pos:R:3:forces:R:3 energy=145.91257364979052 pbc="F F F"
Cl       0.00000000       0.00000000       0.00000000       0.00000000       0.00000000    -397.99887085
Cl       0.00000000       0.00000000       0.76787879       0.00000000       0.00000000     397.99887085
2
Properties=species:S:1:pos:R:3:forces:R:3 energy=122.92030289802896 pbc="F F F"
Cl       0.00000000       0.00000000       0.00000000       0.00000000       0.00000000    -390.69924927
Cl       0.00000000       0.00000000       0.82666667       0.00000000       0.00000000     390.69924927
2
Properties=species:S:1:pos:R:3:forces:R:3 energy=99.83893636837111 pbc="F F F"
Cl       0.00000000       0.00000000       0.00000000       0.00000000       0.00000000    -391.68249512
Cl       0.00000000       0.00000000       0.88545455       0.00000000       0.00000000     391.68249512
2
Properties=species:S:1:pos:R:3:forces:R:3 energy=77.23836703598458 pbc="F F F"
Cl       0.00000000       0.00000000       0.00000000       0.00000000       0.00000000    -371.79052734
Cl       0.00000000       0.00000000       0.94424242       0.00000000       0.00000000     371.79052734
2
Properties=species:S:1:pos:R:3:forces:R:3 energy=56.99291981983061 pbc="F F F"
Cl       0.00000000       0.00000000       0.00000000       0.00000000       0.00000000    -310.88839722
Cl       0.00000000       0.00000000       1.00303030       0.00000000       0.00000000     310.88839722
2
Properties=species:S:1:pos:R:3:forces:R:3 energy=41.008196360758205 pbc="F F F"
Cl       0.00000000       0.00000000       0.00000000       0.00000000       0.00000000    -232.80099487
Cl       0.00000000       0.00000000       1.06181818       0.00000000       0.00000000     232.80099487
2
Properties=species:S:1:pos:R:3:forces:R:3 energy=29.44248579185388 pbc="F F F"
Cl       0.00000000       0.00000000       0.00000000       0.00000000       0.00000000    -163.61880493
Cl       0.00000000       0.00000000       1.12060606       0.00000000       0.00000000     163.61880493
2
Properties=species:S:1:pos:R:3:forces:R:3 energy=21.326368833320323 pbc="F F F"
Cl       0.00000000       0.00000000       0.00000000       0.00000000       0.00000000    -116.42800903
Cl       0.00000000       0.00000000       1.17939394       0.00000000       0.00000000     116.42800903
2
Properties=species:S:1:pos:R:3:forces:R:3 energy=15.374399562087643 pbc="F F F"
Cl       0.00000000       0.00000000       0.00000000       0.00000000       0.00000000     -88.34059906
Cl       0.00000000       0.00000000       1.23818182       0.00000000       0.00000000      88.34059906
2
Properties=species:S:1:pos:R:3:forces:R:3 energy=10.763541109402222 pbc="F F F"
Cl       0.00000000       0.00000000       0.00000000       0.00000000       0.00000000     -69.49578094
Cl       0.00000000       0.00000000       1.29696970       0.00000000       0.00000000      69.49578094
2
Properties=species:S:1:pos:R:3:forces:R:3 energy=7.1198662336611145 pbc="F F F"
Cl       0.00000000       0.00000000       0.00000000       0.00000000       0.00000000     -54.98851013
Cl       0.00000000       0.00000000       1.35575758       0.00000000       0.00000000      54.98851013
2
Properties=species:S:1:pos:R:3:forces:R:3 energy=4.251095963495021 pbc="F F F"
Cl       0.00000000       0.00000000       0.00000000       0.00000000       0.00000000     -42.93099594
Cl       0.00000000       0.00000000       1.41454545       0.00000000       0.00000000      42.93099594
2
Properties=species:S:1:pos:R:3:forces:R:3 energy=2.0359116963452575 pbc="F F F"
Cl       0.00000000       0.00000000       0.00000000       0.00000000       0.00000000     -32.75194168
Cl       0.00000000       0.00000000       1.47333333       0.00000000       0.00000000      32.75194168
2
Properties=species:S:1:pos:R:3:forces:R:3 energy=0.36056407417832126 pbc="F F F"
Cl       0.00000000       0.00000000       0.00000000       0.00000000       0.00000000     -24.58418655
Cl       0.00000000       0.00000000       1.53212121       0.00000000       0.00000000      24.58418655
2
Properties=species:S:1:pos:R:3:forces:R:3 energy=-0.8915439757296376 pbc="F F F"
Cl       0.00000000       0.00000000       0.00000000       0.00000000       0.00000000     -18.29010963
Cl       0.00000000       0.00000000       1.59090909       0.00000000       0.00000000      18.29010963
2
Properties=species:S:1:pos:R:3:forces:R:3 energy=-1.817580961650152 pbc="F F F"
Cl       0.00000000       0.00000000       0.00000000       0.00000000       0.00000000     -13.41325760
Cl       0.00000000       0.00000000       1.64969697       0.00000000       0.00000000      13.41325760
2
Properties=species:S:1:pos:R:3:forces:R:3 energy=-2.4890242707460666 pbc="F F F"
Cl       0.00000000       0.00000000       0.00000000       0.00000000       0.00000000      -9.58341312
Cl       0.00000000       0.00000000       1.70848485       0.00000000       0.00000000       9.58341312
2
Properties=species:S:1:pos:R:3:forces:R:3 energy=-2.9605685822451338 pbc="F F F"
Cl       0.00000000       0.00000000       0.00000000       0.00000000       0.00000000      -6.58176184
Cl       0.00000000       0.00000000       1.76727273       0.00000000       0.00000000       6.58176184
2
Properties=species:S:1:pos:R:3:forces:R:3 energy=-3.275625901291797 pbc="F F F"
Cl       0.00000000       0.00000000       0.00000000       0.00000000       0.00000000      -4.23096895
Cl       0.00000000       0.00000000       1.82606061       0.00000000       0.00000000       4.23096895
2
Properties=species:S:1:pos:R:3:forces:R:3 energy=-3.4676498897908536 pbc="F F F"
Cl       0.00000000       0.00000000       0.00000000       0.00000000       0.00000000      -2.37251997
Cl       0.00000000       0.00000000       1.88484848       0.00000000       0.00000000       2.37251997
2
Properties=species:S:1:pos:R:3:forces:R:3 energy=-3.561879872971007 pbc="F F F"
Cl       0.00000000       0.00000000       0.00000000       0.00000000       0.00000000      -0.88850707
Cl       0.00000000       0.00000000       1.94363636       0.00000000       0.00000000       0.88850707
2
Properties=species:S:1:pos:R:3:forces:R:3 energy=-3.5781325142057856 pbc="F F F"
Cl       0.00000000       0.00000000       0.00000000       0.00000000       0.00000000       0.28681681
Cl       0.00000000       0.00000000       2.00242424       0.00000000       0.00000000      -0.28681681
2
Properties=species:S:1:pos:R:3:forces:R:3 energy=-3.533826612519676 pbc="F F F"
Cl       0.00000000       0.00000000       0.00000000       0.00000000       0.00000000       1.17211604
Cl       0.00000000       0.00000000       2.06121212       0.00000000       0.00000000      -1.17211604
2
Properties=species:S:1:pos:R:3:forces:R:3 energy=-3.445996836592364 pbc="F F F"
Cl       0.00000000       0.00000000       0.00000000       0.00000000       0.00000000       1.76855254
Cl       0.00000000       0.00000000       2.12000000       0.00000000       0.00000000      -1.76855254
2
Properties=species:S:1:pos:R:3:forces:R:3 energy=-3.3311127967354213 pbc="F F F"
Cl       0.00000000       0.00000000       0.00000000       0.00000000       0.00000000       2.09983373
Cl       0.00000000       0.00000000       2.17878788       0.00000000       0.00000000      -2.09983373
2
Properties=species:S:1:pos:R:3:forces:R:3 energy=-3.2031336474893224 pbc="F F F"
Cl       0.00000000       0.00000000       0.00000000       0.00000000       0.00000000       2.22593784
Cl       0.00000000       0.00000000       2.23757576       0.00000000       0.00000000      -2.22593784
2
Properties=species:S:1:pos:R:3:forces:R:3 energy=-3.072017252248583 pbc="F F F"
Cl       0.00000000       0.00000000       0.00000000       0.00000000       0.00000000       2.21799588
Cl       0.00000000       0.00000000       2.29636364       0.00000000       0.00000000      -2.21799588
2
Properties=species:S:1:pos:R:3:forces:R:3 energy=-2.943659083085229 pbc="F F F"
Cl       0.00000000       0.00000000       0.00000000       0.00000000       0.00000000       2.14385009
Cl       0.00000000       0.00000000       2.35515152       0.00000000       0.00000000      -2.14385009
2
Properties=species:S:1:pos:R:3:forces:R:3 energy=-2.8196811377830695 pbc="F F F"
Cl       0.00000000       0.00000000       0.00000000       0.00000000       0.00000000       2.08420682
Cl       0.00000000       0.00000000       2.41393939       0.00000000       0.00000000      -2.08420682
2
Properties=species:S:1:pos:R:3:forces:R:3 energy=-2.696465764561178 pbc="F F F"
Cl       0.00000000       0.00000000       0.00000000       0.00000000       0.00000000       2.13292384
Cl       0.00000000       0.00000000       2.47272727       0.00000000       0.00000000      -2.13292384
2
Properties=species:S:1:pos:R:3:forces:R:3 energy=-2.5654245308749397 pbc="F F F"
Cl       0.00000000       0.00000000       0.00000000       0.00000000       0.00000000       2.35631442
Cl       0.00000000       0.00000000       2.53151515       0.00000000       0.00000000      -2.35631442
2
Properties=species:S:1:pos:R:3:forces:R:3 energy=-2.4161444966432146 pbc="F F F"
Cl       0.00000000       0.00000000       0.00000000       0.00000000       0.00000000       2.74336934
Cl       0.00000000       0.00000000       2.59030303       0.00000000       0.00000000      -2.74336934
2
Properties=species:S:1:pos:R:3:forces:R:3 energy=-2.241772333886997 pbc="F F F"
Cl       0.00000000       0.00000000       0.00000000       0.00000000       0.00000000       3.18382430
Cl       0.00000000       0.00000000       2.64909091       0.00000000       0.00000000      -3.18382430
2
Properties=species:S:1:pos:R:3:forces:R:3 energy=-2.044284841693311 pbc="F F F"
Cl       0.00000000       0.00000000       0.00000000       0.00000000       0.00000000       3.49837637
Cl       0.00000000       0.00000000       2.70787879       0.00000000       0.00000000      -3.49837637
2
Properties=species:S:1:pos:R:3:forces:R:3 energy=-1.8360442309900231 pbc="F F F"
Cl       0.00000000       0.00000000       0.00000000       0.00000000       0.00000000       3.53208041
Cl       0.00000000       0.00000000       2.76666667       0.00000000       0.00000000      -3.53208041
2
Properties=species:S:1:pos:R:3:forces:R:3 energy=-1.6351717276292985 pbc="F F F"
Cl       0.00000000       0.00000000       0.00000000       0.00000000       0.00000000       3.25569320
Cl       0.00000000       0.00000000       2.82545455       0.00000000       0.00000000      -3.25569320
2
Properties=species:S:1:pos:R:3:forces:R:3 energy=-1.4573016967650991 pbc="F F F"
Cl       0.00000000       0.00000000       0.00000000       0.00000000       0.00000000       2.77412653
Cl       0.00000000       0.00000000       2.88424242       0.00000000       0.00000000      -2.77412653
2
Properties=species:S:1:pos:R:3:forces:R:3 energy=-1.3100488077105383 pbc="F F F"
Cl       0.00000000       0.00000000       0.00000000       0.00000000       0.00000000       2.23737335
Cl       0.00000000       0.00000000       2.94303030       0.00000000       0.00000000      -2.23737335
2
Properties=species:S:1:pos:R:3:forces:R:3 energy=-1.1931579162686161 pbc="F F F"
Cl       0.00000000       0.00000000       0.00000000       0.00000000       0.00000000       1.75356591
Cl       0.00000000       0.00000000       3.00181818       0.00000000       0.00000000      -1.75356591
2
Properties=species:S:1:pos:R:3:forces:R:3 energy=-1.1019604662309377 pbc="F F F"
Cl       0.00000000       0.00000000       0.00000000       0.00000000       0.00000000       1.36588109
Cl       0.00000000       0.00000000       3.06060606       0.00000000       0.00000000      -1.36588109
2
Properties=species:S:1:pos:R:3:forces:R:3 energy=-1.0306864159690976 pbc="F F F"
Cl       0.00000000       0.00000000       0.00000000       0.00000000       0.00000000       1.07346535
Cl       0.00000000       0.00000000       3.11939394       0.00000000       0.00000000      -1.07346535
2
Properties=species:S:1:pos:R:3:forces:R:3 energy=-0.9742365630442607 pbc="F F F"
Cl       0.00000000       0.00000000       0.00000000       0.00000000       0.00000000       0.85804200
Cl       0.00000000       0.00000000       3.17818182       0.00000000       0.00000000      -0.85804200
2
Properties=species:S:1:pos:R:3:forces:R:3 energy=-0.9286883537265157 pbc="F F F"
Cl       0.00000000       0.00000000       0.00000000       0.00000000       0.00000000       0.69956654
Cl       0.00000000       0.00000000       3.23696970       0.00000000       0.00000000      -0.69956654
2
Properties=species:S:1:pos:R:3:forces:R:3 energy=-0.8911919463336291 pbc="F F F"
Cl       0.00000000       0.00000000       0.00000000       0.00000000       0.00000000       0.58173442
Cl       0.00000000       0.00000000       3.29575758       0.00000000       0.00000000      -0.58173442
2
Properties=species:S:1:pos:R:3:forces:R:3 energy=-0.8597302904485108 pbc="F F F"
Cl       0.00000000       0.00000000       0.00000000       0.00000000       0.00000000       0.49258310
Cl       0.00000000       0.00000000       3.35454545       0.00000000       0.00000000      -0.49258310
2
Properties=species:S:1:pos:R:3:forces:R:3 energy=-0.8328818408283634 pbc="F F F"
Cl       0.00000000       0.00000000       0.00000000       0.00000000       0.00000000       0.42363390
Cl       0.00000000       0.00000000       3.41333333       0.00000000       0.00000000      -0.42363390
2
Properties=species:S:1:pos:R:3:forces:R:3 energy=-0.8096419127808239 pbc="F F F"
Cl       0.00000000       0.00000000       0.00000000       0.00000000       0.00000000       0.36900264
Cl       0.00000000       0.00000000       3.47212121       0.00000000       0.00000000      -0.36900264
2
Properties=species:S:1:pos:R:3:forces:R:3 energy=-0.7892937935792526 pbc="F F F"
Cl       0.00000000       0.00000000       0.00000000       0.00000000       0.00000000       0.32475021
Cl       0.00000000       0.00000000       3.53090909       0.00000000       0.00000000      -0.32475021
2
Properties=species:S:1:pos:R:3:forces:R:3 energy=-0.7713058173285177 pbc="F F F"
Cl       0.00000000       0.00000000       0.00000000       0.00000000       0.00000000       0.28835434
Cl       0.00000000       0.00000000       3.58969697       0.00000000       0.00000000      -0.28835434
2
Properties=species:S:1:pos:R:3:forces:R:3 energy=-0.7552672006888668 pbc="F F F"
Cl       0.00000000       0.00000000       0.00000000       0.00000000       0.00000000       0.25824013
Cl       0.00000000       0.00000000       3.64848485       0.00000000       0.00000000      -0.25824013
2
Properties=species:S:1:pos:R:3:forces:R:3 energy=-0.7408405779877755 pbc="F F F"
Cl       0.00000000       0.00000000       0.00000000       0.00000000       0.00000000       0.23337609
Cl       0.00000000       0.00000000       3.70727273       0.00000000       0.00000000      -0.23337609
2
Properties=species:S:1:pos:R:3:forces:R:3 energy=-0.7277403128807883 pbc="F F F"
Cl       0.00000000       0.00000000       0.00000000       0.00000000       0.00000000       0.21297693
Cl       0.00000000       0.00000000       3.76606061       0.00000000       0.00000000      -0.21297693
2
Properties=species:S:1:pos:R:3:forces:R:3 energy=-0.7157259881899732 pbc="F F F"
Cl       0.00000000       0.00000000       0.00000000       0.00000000       0.00000000       0.19633493
Cl       0.00000000       0.00000000       3.82484848       0.00000000       0.00000000      -0.19633493
2
Properties=species:S:1:pos:R:3:forces:R:3 energy=-0.7045960644688686 pbc="F F F"
Cl       0.00000000       0.00000000       0.00000000       0.00000000       0.00000000       0.18275666
Cl       0.00000000       0.00000000       3.88363636       0.00000000       0.00000000      -0.18275666
2
Properties=species:S:1:pos:R:3:forces:R:3 energy=-0.694191363414392 pbc="F F F"
Cl       0.00000000       0.00000000       0.00000000       0.00000000       0.00000000       0.17156406
Cl       0.00000000       0.00000000       3.94242424       0.00000000       0.00000000      -0.17156406
2
Properties=species:S:1:pos:R:3:forces:R:3 energy=-0.6843907464460859 pbc="F F F"
Cl       0.00000000       0.00000000       0.00000000       0.00000000       0.00000000       0.16210753
Cl       0.00000000       0.00000000       4.00121212       0.00000000       0.00000000      -0.16210753
2
Properties=species:S:1:pos:R:3:forces:R:3 energy=-0.6751098170751557 pbc="F F F"
Cl       0.00000000       0.00000000       0.00000000       0.00000000       0.00000000       0.15376660
Cl       0.00000000       0.00000000       4.06000000       0.00000000       0.00000000      -0.15376660
2
Properties=species:S:1:pos:R:3:forces:R:3 energy=-0.6663009407033589 pbc="F F F"
Cl       0.00000000       0.00000000       0.00000000       0.00000000       0.00000000       0.14596337
Cl       0.00000000       0.00000000       4.11878788       0.00000000       0.00000000      -0.14596337
2
Properties=species:S:1:pos:R:3:forces:R:3 energy=-0.6579470831698374 pbc="F F F"
Cl       0.00000000       0.00000000       0.00000000       0.00000000       0.00000000       0.13821138
Cl       0.00000000       0.00000000       4.17757576       0.00000000       0.00000000      -0.13821138
2
Properties=species:S:1:pos:R:3:forces:R:3 energy=-0.6500550300768135 pbc="F F F"
Cl       0.00000000       0.00000000       0.00000000       0.00000000       0.00000000       0.13022991
Cl       0.00000000       0.00000000       4.23636364       0.00000000       0.00000000      -0.13022991
2
Properties=species:S:1:pos:R:3:forces:R:3 energy=-0.6426388109466735 pbc="F F F"
Cl       0.00000000       0.00000000       0.00000000       0.00000000       0.00000000       0.12206553
Cl       0.00000000       0.00000000       4.29515152       0.00000000       0.00000000      -0.12206553
2
Properties=species:S:1:pos:R:3:forces:R:3 energy=-0.6356988326365841 pbc="F F F"
Cl       0.00000000       0.00000000       0.00000000       0.00000000       0.00000000       0.11413386
Cl       0.00000000       0.00000000       4.35393939       0.00000000       0.00000000      -0.11413386
2
Properties=species:S:1:pos:R:3:forces:R:3 energy=-0.6292020905964262 pbc="F F F"
Cl       0.00000000       0.00000000       0.00000000       0.00000000       0.00000000       0.10709591
Cl       0.00000000       0.00000000       4.41272727       0.00000000       0.00000000      -0.10709591
2
Properties=species:S:1:pos:R:3:forces:R:3 energy=-0.6230766515633851 pbc="F F F"
Cl       0.00000000       0.00000000       0.00000000       0.00000000       0.00000000       0.10159016
Cl       0.00000000       0.00000000       4.47151515       0.00000000       0.00000000      -0.10159016
2
Properties=species:S:1:pos:R:3:forces:R:3 energy=-0.6172214802008025 pbc="F F F"
Cl       0.00000000       0.00000000       0.00000000       0.00000000       0.00000000       0.09790495
Cl       0.00000000       0.00000000       4.53030303       0.00000000       0.00000000      -0.09790495
2
Properties=species:S:1:pos:R:3:forces:R:3 energy=-0.6115349697161566 pbc="F F F"
Cl       0.00000000       0.00000000       0.00000000       0.00000000       0.00000000       0.09575360
Cl       0.00000000       0.00000000       4.58909091       0.00000000       0.00000000      -0.09575360
2
Properties=species:S:1:pos:R:3:forces:R:3 energy=-0.6059503794902359 pbc="F F F"
Cl       0.00000000       0.00000000       0.00000000       0.00000000       0.00000000       0.09424798
Cl       0.00000000       0.00000000       4.64787879       0.00000000       0.00000000      -0.09424798
2
Properties=species:S:1:pos:R:3:forces:R:3 energy=-0.6004661823448604 pbc="F F F"
Cl       0.00000000       0.00000000       0.00000000       0.00000000       0.00000000       0.09210072
Cl       0.00000000       0.00000000       4.70666667       0.00000000       0.00000000      -0.09210072
2
Properties=species:S:1:pos:R:3:forces:R:3 energy=-0.5951593126131333 pbc="F F F"
Cl       0.00000000       0.00000000       0.00000000       0.00000000       0.00000000       0.08804519
Cl       0.00000000       0.00000000       4.76545455       0.00000000       0.00000000      -0.08804519
2
Properties=species:S:1:pos:R:3:forces:R:3 energy=-0.5901669619641831 pbc="F F F"
Cl       0.00000000       0.00000000       0.00000000       0.00000000       0.00000000       0.08132829
Cl       0.00000000       0.00000000       4.82424242       0.00000000       0.00000000      -0.08132829
2
Properties=species:S:1:pos:R:3:forces:R:3 energy=-0.5856460862585819 pbc="F F F"
Cl       0.00000000       0.00000000       0.00000000       0.00000000       0.00000000       0.07215571
Cl       0.00000000       0.00000000       4.88303030       0.00000000       0.00000000      -0.07215571
2
Properties=species:S:1:pos:R:3:forces:R:3 energy=-0.5817053922929019 pbc="F F F"
Cl       0.00000000       0.00000000       0.00000000       0.00000000       0.00000000       0.06189030
Cl       0.00000000       0.00000000       4.94181818       0.00000000       0.00000000      -0.06189030
2
Properties=species:S:1:pos:R:3:forces:R:3 energy=-0.5783450606648003 pbc="F F F"
Cl       0.00000000       0.00000000       0.00000000       0.00000000       0.00000000       0.05285678
Cl       0.00000000       0.00000000       5.00060606       0.00000000       0.00000000      -0.05285678
2
Properties=species:S:1:pos:R:3:forces:R:3 energy=-0.5754153892570357 pbc="F F F"
Cl       0.00000000       0.00000000       0.00000000       0.00000000       0.00000000       0.04763228
Cl       0.00000000       0.00000000       5.05939394       0.00000000       0.00000000      -0.04763228
2
Properties=species:S:1:pos:R:3:forces:R:3 energy=-0.5726346738389436 pbc="F F F"
Cl       0.00000000       0.00000000       0.00000000       0.00000000       0.00000000       0.04794760
Cl       0.00000000       0.00000000       5.11818182       0.00000000       0.00000000      -0.04794760
2
Properties=species:S:1:pos:R:3:forces:R:3 energy=-0.5696727335766786 pbc="F F F"
Cl       0.00000000       0.00000000       0.00000000       0.00000000       0.00000000       0.05355290
Cl       0.00000000       0.00000000       5.17696970       0.00000000       0.00000000      -0.05355290
2
Properties=species:S:1:pos:R:3:forces:R:3 energy=-0.5662880621127968 pbc="F F F"
Cl       0.00000000       0.00000000       0.00000000       0.00000000       0.00000000       0.06166491
Cl       0.00000000       0.00000000       5.23575758       0.00000000       0.00000000      -0.06166491
2
Properties=species:S:1:pos:R:3:forces:R:3 energy=-0.5624597995753787 pbc="F F F"
Cl       0.00000000       0.00000000       0.00000000       0.00000000       0.00000000       0.06793524
Cl       0.00000000       0.00000000       5.29454545       0.00000000       0.00000000      -0.06793524
2
Properties=species:S:1:pos:R:3:forces:R:3 energy=-0.5583859464185736 pbc="F F F"
Cl       0.00000000       0.00000000       0.00000000       0.00000000       0.00000000       0.07011617
Cl       0.00000000       0.00000000       5.35333333       0.00000000       0.00000000      -0.07011617
2
Properties=species:S:1:pos:R:3:forces:R:3 energy=-0.5541955302171132 pbc="F F F"
Cl       0.00000000       0.00000000       0.00000000       0.00000000       0.00000000       0.07350946
Cl       0.00000000       0.00000000       5.41212121       0.00000000       0.00000000      -0.07350946
2
Properties=species:S:1:pos:R:3:forces:R:3 energy=-0.5495559332363645 pbc="F F F"
Cl       0.00000000       0.00000000       0.00000000       0.00000000       0.00000000       0.08562920
Cl       0.00000000       0.00000000       5.47090909       0.00000000       0.00000000      -0.08562920
2
Properties=species:S:1:pos:R:3:forces:R:3 energy=-0.5441586104846154 pbc="F F F"
Cl       0.00000000       0.00000000       0.00000000       0.00000000       0.00000000       0.09604134
Cl       0.00000000       0.00000000       5.52969697       0.00000000       0.00000000      -0.09604134
2
Properties=species:S:1:pos:R:3:forces:R:3 energy=-0.5385602268963455 pbc="F F F"
Cl       0.00000000       0.00000000       0.00000000       0.00000000       0.00000000       0.09228000
Cl       0.00000000       0.00000000       5.58848485       0.00000000       0.00000000      -0.09228000
2
Properties=species:S:1:pos:R:3:forces:R:3 energy=-0.5334315229645772 pbc="F F F"
Cl       0.00000000       0.00000000       0.00000000       0.00000000       0.00000000       0.08229900
Cl       0.00000000       0.00000000       5.64727273       0.00000000       0.00000000      -0.08229900
2
Properties=species:S:1:pos:R:3:forces:R:3 energy=-0.5287862603445505 pbc="F F F"
Cl       0.00000000       0.00000000       0.00000000       0.00000000       0.00000000       0.07674819
Cl       0.00000000       0.00000000       5.70606061       0.00000000       0.00000000      -0.07674819
2
Properties=species:S:1:pos:R:3:forces:R:3 energy=-0.524421582157257 pbc="F F F"
Cl       0.00000000       0.00000000       0.00000000       0.00000000       0.00000000       0.06958626
Cl       0.00000000       0.00000000       5.76484848       0.00000000       0.00000000      -0.06958626
2
Properties=species:S:1:pos:R:3:forces:R:3 energy=-0.5209245607835283 pbc="F F F"
Cl       0.00000000       0.00000000       0.00000000       0.00000000       0.00000000       0.04728749
Cl       0.00000000       0.00000000       5.82363636       0.00000000       0.00000000      -0.04728749
2
Properties=species:S:1:pos:R:3:forces:R:3 energy=-0.5189330241321051 pbc="F F F"
Cl       0.00000000       0.00000000       0.00000000       0.00000000       0.00000000       0.02174355
Cl       0.00000000       0.00000000       5.88242424       0.00000000       0.00000000      -0.02174355
2
Properties=species:S:1:pos:R:3:forces:R:3 energy=-0.5181577515395289 pbc="F F F"
Cl       0.00000000       0.00000000       0.00000000       0.00000000       0.00000000       0.00639681
Cl       0.00000000       0.00000000       5.94121212       0.00000000       0.00000000      -0.00639681
2
Properties=species:S:1:pos:R:3:forces:R:3 energy=-0.5179767250499486 pbc="F F F"
Cl       0.00000000       0.00000000       0.00000000       0.00000000       0.00000000       0.00142215
Cl       0.00000000       0.00000000       6.00000000       0.00000000       0.00000000      -0.00142215
