2
Properties=species:S:1:pos:R:3:forces:R:3 energy=3641.6733213890484 pbc="F F F"
Co       0.00000000       0.00000000       0.00000000       0.00000000       0.00000000  -55845.71875000
Co       0.00000000       0.00000000       0.18000000       0.00000000       0.00000000   55845.71875000
2
Properties=species:S:1:pos:R:3:forces:R:3 energy=1609.7995420921736 pbc="F F F"
Co       0.00000000       0.00000000       0.00000000       0.00000000       0.00000000  -20330.76757812
Co       0.00000000       0.00000000       0.23878788       0.00000000       0.00000000   20330.76757812
2
Properties=species:S:1:pos:R:3:forces:R:3 energy=812.1233335992476 pbc="F F F"
Co       0.00000000       0.00000000       0.00000000       0.00000000       0.00000000   -8719.33398438
Co       0.00000000       0.00000000       0.29757576       0.00000000       0.00000000    8719.33398438
2
Properties=species:S:1:pos:R:3:forces:R:3 energy=452.3328367730757 pbc="F F F"
Co       0.00000000       0.00000000       0.00000000       0.00000000       0.00000000   -4167.98828125
Co       0.00000000       0.00000000       0.35636364       0.00000000       0.00000000    4167.98828125
2
Properties=species:S:1:pos:R:3:forces:R:3 energy=273.82291856652074 pbc="F F F"
Co       0.00000000       0.00000000       0.00000000       0.00000000       0.00000000   -2160.72900391
Co       0.00000000       0.00000000       0.41515152       0.00000000       0.00000000    2160.72900391
2
Properties=species:S:1:pos:R:3:forces:R:3 energy=178.1843840332936 pbc="F F F"
Co       0.00000000       0.00000000       0.00000000       0.00000000       0.00000000   -1205.27441406
Co       0.00000000       0.00000000       0.47393939       0.00000000       0.00000000    1205.27441406
2
Properties=species:S:1:pos:R:3:forces:R:3 energy=122.99325246683931 pbc="F F F"
Co       0.00000000       0.00000000       0.00000000       0.00000000       0.00000000    -724.73706055
Co       0.00000000       0.00000000       0.53272727       0.00000000       0.00000000     724.73706055
2
Properties=species:S:1:pos:R:3:forces:R:3 energy=88.68968652584927 pbc="F F F"
Co       0.00000000       0.00000000       0.00000000       0.00000000       0.00000000    -466.73898315
Co       0.00000000       0.00000000       0.59151515       0.00000000       0.00000000     466.73898315
2
Properties=species:S:1:pos:R:3:forces:R:3 energy=66.1405761829437 pbc="F F F"
Co       0.00000000       0.00000000       0.00000000       0.00000000       0.00000000    -311.94714355
Co       0.00000000       0.00000000       0.65030303       0.00000000       0.00000000     311.94714355
2
Properties=species:S:1:pos:R:3:forces:R:3 energy=50.88810054895644 pbc="F F F"
Co       0.00000000       0.00000000       0.00000000       0.00000000       0.00000000    -216.29331970
Co       0.00000000       0.00000000       0.70909091       0.00000000       0.00000000     216.29331970
2
Properties=species:S:1:pos:R:3:forces:R:3 energy=39.53814801276146 pbc="F F F"
Co       0.00000000       0.00000000       0.00000000       0.00000000       0.00000000    -178.38572693
Co       0.00000000       0.00000000       0.76787879       0.00000000       0.00000000     178.38572693
2
Properties=species:S:1:pos:R:3:forces:R:3 energy=29.66733869529441 pbc="F F F"
Co       0.00000000       0.00000000       0.00000000       0.00000000       0.00000000    -154.31475830
Co       0.00000000       0.00000000       0.82666667       0.00000000       0.00000000     154.31475830
2
Properties=species:S:1:pos:R:3:forces:R:3 energy=21.652881334782485 pbc="F F F"
Co       0.00000000       0.00000000       0.00000000       0.00000000       0.00000000    -118.05599976
Co       0.00000000       0.00000000       0.88545455       0.00000000       0.00000000     118.05599976
2
Properties=species:S:1:pos:R:3:forces:R:3 energy=15.747519683912206 pbc="F F F"
Co       0.00000000       0.00000000       0.00000000       0.00000000       0.00000000     -83.84904480
Co       0.00000000       0.00000000       0.94424242       0.00000000       0.00000000      83.84904480
2
Properties=species:S:1:pos:R:3:forces:R:3 energy=11.583407298080441 pbc="F F F"
Co       0.00000000       0.00000000       0.00000000       0.00000000       0.00000000     -59.69148254
Co       0.00000000       0.00000000       1.00303030       0.00000000       0.00000000      59.69148254
2
Properties=species:S:1:pos:R:3:forces:R:3 energy=8.562218495434413 pbc="F F F"
Co       0.00000000       0.00000000       0.00000000       0.00000000       0.00000000     -43.97673416
Co       0.00000000       0.00000000       1.06181818       0.00000000       0.00000000      43.97673416
2
Properties=species:S:1:pos:R:3:forces:R:3 energy=6.349674278966791 pbc="F F F"
Co       0.00000000       0.00000000       0.00000000       0.00000000       0.00000000     -31.89288902
Co       0.00000000       0.00000000       1.12060606       0.00000000       0.00000000      31.89288902
2
Properties=species:S:1:pos:R:3:forces:R:3 energy=4.698235201273814 pbc="F F F"
Co       0.00000000       0.00000000       0.00000000       0.00000000       0.00000000     -25.41677856
Co       0.00000000       0.00000000       1.17939394       0.00000000       0.00000000      25.41677856
2
Properties=species:S:1:pos:R:3:forces:R:3 energy=3.260607735713315 pbc="F F F"
Co       0.00000000       0.00000000       0.00000000       0.00000000       0.00000000     -23.95686340
Co       0.00000000       0.00000000       1.23818182       0.00000000       0.00000000      23.95686340
2
Properties=species:S:1:pos:R:3:forces:R:3 energy=1.8579308456185912 pbc="F F F"
Co       0.00000000       0.00000000       0.00000000       0.00000000       0.00000000     -23.87002182
Co       0.00000000       0.00000000       1.29696970       0.00000000       0.00000000      23.87002182
2
Properties=species:S:1:pos:R:3:forces:R:3 energy=0.4400687846214015 pbc="F F F"
Co       0.00000000       0.00000000       0.00000000       0.00000000       0.00000000     -24.43522072
Co       0.00000000       0.00000000       1.35575758       0.00000000       0.00000000      24.43522072
2
Properties=species:S:1:pos:R:3:forces:R:3 energy=-1.001460287264197 pbc="F F F"
Co       0.00000000       0.00000000       0.00000000       0.00000000       0.00000000     -24.28623009
Co       0.00000000       0.00000000       1.41454545       0.00000000       0.00000000      24.28623009
2
Properties=species:S:1:pos:R:3:forces:R:3 energy=-2.3669801269622806 pbc="F F F"
Co       0.00000000       0.00000000       0.00000000       0.00000000       0.00000000     -21.78255081
Co       0.00000000       0.00000000       1.47333333       0.00000000       0.00000000      21.78255081
2
Properties=species:S:1:pos:R:3:forces:R:3 energy=-3.5337456277019044 pbc="F F F"
Co       0.00000000       0.00000000       0.00000000       0.00000000       0.00000000     -17.82539368
Co       0.00000000       0.00000000       1.53212121       0.00000000       0.00000000      17.82539368
2
Properties=species:S:1:pos:R:3:forces:R:3 energy=-4.466432517741245 pbc="F F F"
Co       0.00000000       0.00000000       0.00000000       0.00000000       0.00000000     -14.00577927
Co       0.00000000       0.00000000       1.59090909       0.00000000       0.00000000      14.00577927
2
Properties=species:S:1:pos:R:3:forces:R:3 energy=-5.193447822587172 pbc="F F F"
Co       0.00000000       0.00000000       0.00000000       0.00000000       0.00000000     -10.82281017
Co       0.00000000       0.00000000       1.64969697       0.00000000       0.00000000      10.82281017
2
Properties=species:S:1:pos:R:3:forces:R:3 energy=-5.74686301129426 pbc="F F F"
Co       0.00000000       0.00000000       0.00000000       0.00000000       0.00000000      -8.04883003
Co       0.00000000       0.00000000       1.70848485       0.00000000       0.00000000       8.04883003
2
Properties=species:S:1:pos:R:3:forces:R:3 energy=-6.143939612348503 pbc="F F F"
Co       0.00000000       0.00000000       0.00000000       0.00000000       0.00000000      -5.49638844
Co       0.00000000       0.00000000       1.76727273       0.00000000       0.00000000       5.49638844
2
Properties=species:S:1:pos:R:3:forces:R:3 energy=-6.398544052679022 pbc="F F F"
Co       0.00000000       0.00000000       0.00000000       0.00000000       0.00000000      -3.22283101
Co       0.00000000       0.00000000       1.82606061       0.00000000       0.00000000       3.22283101
2
Properties=species:S:1:pos:R:3:forces:R:3 energy=-6.530660005779623 pbc="F F F"
Co       0.00000000       0.00000000       0.00000000       0.00000000       0.00000000      -1.34406650
Co       0.00000000       0.00000000       1.88484848       0.00000000       0.00000000       1.34406650
2
Properties=species:S:1:pos:R:3:forces:R:3 energy=-6.565324087524322 pbc="F F F"
Co       0.00000000       0.00000000       0.00000000       0.00000000       0.00000000       0.08989350
Co       0.00000000       0.00000000       1.94363636       0.00000000       0.00000000      -0.08989350
2
Properties=species:S:1:pos:R:3:forces:R:3 energy=-6.528695931404753 pbc="F F F"
Co       0.00000000       0.00000000       0.00000000       0.00000000       0.00000000       1.08610511
Co       0.00000000       0.00000000       2.00242424       0.00000000       0.00000000      -1.08610511
2
Properties=species:S:1:pos:R:3:forces:R:3 energy=-6.445225821889131 pbc="F F F"
Co       0.00000000       0.00000000       0.00000000       0.00000000       0.00000000       1.69599390
Co       0.00000000       0.00000000       2.06121212       0.00000000       0.00000000      -1.69599390
2
Properties=species:S:1:pos:R:3:forces:R:3 energy=-6.335020022189894 pbc="F F F"
Co       0.00000000       0.00000000       0.00000000       0.00000000       0.00000000       2.01386595
Co       0.00000000       0.00000000       2.12000000       0.00000000       0.00000000      -2.01386595
2
Properties=species:S:1:pos:R:3:forces:R:3 energy=-6.2120347566038125 pbc="F F F"
Co       0.00000000       0.00000000       0.00000000       0.00000000       0.00000000       2.14754987
Co       0.00000000       0.00000000       2.17878788       0.00000000       0.00000000      -2.14754987
2
Properties=species:S:1:pos:R:3:forces:R:3 energy=-6.0844504446562215 pbc="F F F"
Co       0.00000000       0.00000000       0.00000000       0.00000000       0.00000000       2.18140435
Co       0.00000000       0.00000000       2.23757576       0.00000000       0.00000000      -2.18140435
2
Properties=species:S:1:pos:R:3:forces:R:3 energy=-5.956540069100014 pbc="F F F"
Co       0.00000000       0.00000000       0.00000000       0.00000000       0.00000000       2.16411328
Co       0.00000000       0.00000000       2.29636364       0.00000000       0.00000000      -2.16411328
2
Properties=species:S:1:pos:R:3:forces:R:3 energy=-5.830563378303521 pbc="F F F"
Co       0.00000000       0.00000000       0.00000000       0.00000000       0.00000000       2.11813855
Co       0.00000000       0.00000000       2.35515152       0.00000000       0.00000000      -2.11813855
2
Properties=species:S:1:pos:R:3:forces:R:3 energy=-5.707667959826498 pbc="F F F"
Co       0.00000000       0.00000000       0.00000000       0.00000000       0.00000000       2.06503701
Co       0.00000000       0.00000000       2.41393939       0.00000000       0.00000000      -2.06503701
2
Properties=species:S:1:pos:R:3:forces:R:3 energy=-5.586834771013758 pbc="F F F"
Co       0.00000000       0.00000000       0.00000000       0.00000000       0.00000000       2.05824637
Co       0.00000000       0.00000000       2.47272727       0.00000000       0.00000000      -2.05824637
2
Properties=species:S:1:pos:R:3:forces:R:3 energy=-5.464474438081192 pbc="F F F"
Co       0.00000000       0.00000000       0.00000000       0.00000000       0.00000000       2.10716438
Co       0.00000000       0.00000000       2.53151515       0.00000000       0.00000000      -2.10716438
2
Properties=species:S:1:pos:R:3:forces:R:3 energy=-5.339807518311598 pbc="F F F"
Co       0.00000000       0.00000000       0.00000000       0.00000000       0.00000000       2.12256694
Co       0.00000000       0.00000000       2.59030303       0.00000000       0.00000000      -2.12256694
2
Properties=species:S:1:pos:R:3:forces:R:3 energy=-5.2162646824902525 pbc="F F F"
Co       0.00000000       0.00000000       0.00000000       0.00000000       0.00000000       2.07112622
Co       0.00000000       0.00000000       2.64909091       0.00000000       0.00000000      -2.07112622
2
Properties=species:S:1:pos:R:3:forces:R:3 energy=-5.0970170092657 pbc="F F F"
Co       0.00000000       0.00000000       0.00000000       0.00000000       0.00000000       1.98247313
Co       0.00000000       0.00000000       2.70787879       0.00000000       0.00000000      -1.98247313
2
Properties=species:S:1:pos:R:3:forces:R:3 energy=-4.9833226866127065 pbc="F F F"
Co       0.00000000       0.00000000       0.00000000       0.00000000       0.00000000       1.88560379
Co       0.00000000       0.00000000       2.76666667       0.00000000       0.00000000      -1.88560379
2
Properties=species:S:1:pos:R:3:forces:R:3 energy=-4.875232200940038 pbc="F F F"
Co       0.00000000       0.00000000       0.00000000       0.00000000       0.00000000       1.79249144
Co       0.00000000       0.00000000       2.82545455       0.00000000       0.00000000      -1.79249144
2
Properties=species:S:1:pos:R:3:forces:R:3 energy=-4.77253015535808 pbc="F F F"
Co       0.00000000       0.00000000       0.00000000       0.00000000       0.00000000       1.70121431
Co       0.00000000       0.00000000       2.88424242       0.00000000       0.00000000      -1.70121431
2
Properties=species:S:1:pos:R:3:forces:R:3 energy=-4.675315010182661 pbc="F F F"
Co       0.00000000       0.00000000       0.00000000       0.00000000       0.00000000       1.60475707
Co       0.00000000       0.00000000       2.94303030       0.00000000       0.00000000      -1.60475707
2
Properties=species:S:1:pos:R:3:forces:R:3 energy=-4.58401674383406 pbc="F F F"
Co       0.00000000       0.00000000       0.00000000       0.00000000       0.00000000       1.50003493
Co       0.00000000       0.00000000       3.00181818       0.00000000       0.00000000      -1.50003493
2
Properties=species:S:1:pos:R:3:forces:R:3 energy=-4.499012883284553 pbc="F F F"
Co       0.00000000       0.00000000       0.00000000       0.00000000       0.00000000       1.39215934
Co       0.00000000       0.00000000       3.06060606       0.00000000       0.00000000      -1.39215934
2
Properties=species:S:1:pos:R:3:forces:R:3 energy=-4.420177273075201 pbc="F F F"
Co       0.00000000       0.00000000       0.00000000       0.00000000       0.00000000       1.29223287
Co       0.00000000       0.00000000       3.11939394       0.00000000       0.00000000      -1.29223287
2
Properties=species:S:1:pos:R:3:forces:R:3 energy=-4.346705384861539 pbc="F F F"
Co       0.00000000       0.00000000       0.00000000       0.00000000       0.00000000       1.21106648
Co       0.00000000       0.00000000       3.17818182       0.00000000       0.00000000      -1.21106648
2
Properties=species:S:1:pos:R:3:forces:R:3 energy=-4.277316914521161 pbc="F F F"
Co       0.00000000       0.00000000       0.00000000       0.00000000       0.00000000       1.15349936
Co       0.00000000       0.00000000       3.23696970       0.00000000       0.00000000      -1.15349936
2
Properties=species:S:1:pos:R:3:forces:R:3 energy=-4.210673071687956 pbc="F F F"
Co       0.00000000       0.00000000       0.00000000       0.00000000       0.00000000       1.11663628
Co       0.00000000       0.00000000       3.29575758       0.00000000       0.00000000      -1.11663628
2
Properties=species:S:1:pos:R:3:forces:R:3 energy=-4.145784929757568 pbc="F F F"
Co       0.00000000       0.00000000       0.00000000       0.00000000       0.00000000       1.09210861
Co       0.00000000       0.00000000       3.35454545       0.00000000       0.00000000      -1.09210861
2
Properties=species:S:1:pos:R:3:forces:R:3 energy=-4.082220073774939 pbc="F F F"
Co       0.00000000       0.00000000       0.00000000       0.00000000       0.00000000       1.07005012
Co       0.00000000       0.00000000       3.41333333       0.00000000       0.00000000      -1.07005012
2
Properties=species:S:1:pos:R:3:forces:R:3 energy=-4.020086105202838 pbc="F F F"
Co       0.00000000       0.00000000       0.00000000       0.00000000       0.00000000       1.04234350
Co       0.00000000       0.00000000       3.47212121       0.00000000       0.00000000      -1.04234350
2
Properties=species:S:1:pos:R:3:forces:R:3 energy=-3.9598751256521068 pbc="F F F"
Co       0.00000000       0.00000000       0.00000000       0.00000000       0.00000000       1.00408924
Co       0.00000000       0.00000000       3.53090909       0.00000000       0.00000000      -1.00408924
2
Properties=species:S:1:pos:R:3:forces:R:3 energy=-3.902272588537663 pbc="F F F"
Co       0.00000000       0.00000000       0.00000000       0.00000000       0.00000000       0.95347756
Co       0.00000000       0.00000000       3.58969697       0.00000000       0.00000000      -0.95347756
2
Properties=species:S:1:pos:R:3:forces:R:3 energy=-3.8480022026251013 pbc="F F F"
Co       0.00000000       0.00000000       0.00000000       0.00000000       0.00000000       0.89100307
Co       0.00000000       0.00000000       3.64848485       0.00000000       0.00000000      -0.89100307
2
Properties=species:S:1:pos:R:3:forces:R:3 energy=-3.7977081532526165 pbc="F F F"
Co       0.00000000       0.00000000       0.00000000       0.00000000       0.00000000       0.81861258
Co       0.00000000       0.00000000       3.70727273       0.00000000       0.00000000      -0.81861258
2
Properties=species:S:1:pos:R:3:forces:R:3 energy=-3.751892022777853 pbc="F F F"
Co       0.00000000       0.00000000       0.00000000       0.00000000       0.00000000       0.73916185
Co       0.00000000       0.00000000       3.76606061       0.00000000       0.00000000      -0.73916185
2
Properties=species:S:1:pos:R:3:forces:R:3 energy=-3.7108725485231884 pbc="F F F"
Co       0.00000000       0.00000000       0.00000000       0.00000000       0.00000000       0.65604925
Co       0.00000000       0.00000000       3.82484848       0.00000000       0.00000000      -0.65604925
2
Properties=species:S:1:pos:R:3:forces:R:3 energy=-3.674758052583675 pbc="F F F"
Co       0.00000000       0.00000000       0.00000000       0.00000000       0.00000000       0.57284814
Co       0.00000000       0.00000000       3.88363636       0.00000000       0.00000000      -0.57284814
2
Properties=species:S:1:pos:R:3:forces:R:3 energy=-3.6434547191211255 pbc="F F F"
Co       0.00000000       0.00000000       0.00000000       0.00000000       0.00000000       0.49290463
Co       0.00000000       0.00000000       3.94242424       0.00000000       0.00000000      -0.49290463
2
Properties=species:S:1:pos:R:3:forces:R:3 energy=-3.6166881193924145 pbc="F F F"
Co       0.00000000       0.00000000       0.00000000       0.00000000       0.00000000       0.41887650
Co       0.00000000       0.00000000       4.00121212       0.00000000       0.00000000      -0.41887650
2
Properties=species:S:1:pos:R:3:forces:R:3 energy=-3.5940565098052444 pbc="F F F"
Co       0.00000000       0.00000000       0.00000000       0.00000000       0.00000000       0.35241646
Co       0.00000000       0.00000000       4.06000000       0.00000000       0.00000000      -0.35241646
2
Properties=species:S:1:pos:R:3:forces:R:3 energy=-3.5750923312402647 pbc="F F F"
Co       0.00000000       0.00000000       0.00000000       0.00000000       0.00000000       0.29409352
Co       0.00000000       0.00000000       4.11878788       0.00000000       0.00000000      -0.29409352
2
Properties=species:S:1:pos:R:3:forces:R:3 energy=-3.559323950791512 pbc="F F F"
Co       0.00000000       0.00000000       0.00000000       0.00000000       0.00000000       0.24360126
Co       0.00000000       0.00000000       4.17757576       0.00000000       0.00000000      -0.24360126
2
Properties=species:S:1:pos:R:3:forces:R:3 energy=-3.5463115806084784 pbc="F F F"
Co       0.00000000       0.00000000       0.00000000       0.00000000       0.00000000       0.20021516
Co       0.00000000       0.00000000       4.23636364       0.00000000       0.00000000      -0.20021516
2
Properties=species:S:1:pos:R:3:forces:R:3 energy=-3.535656303787989 pbc="F F F"
Co       0.00000000       0.00000000       0.00000000       0.00000000       0.00000000       0.16332285
Co       0.00000000       0.00000000       4.29515152       0.00000000       0.00000000      -0.16332285
2
Properties=species:S:1:pos:R:3:forces:R:3 energy=-3.5269834547657557 pbc="F F F"
Co       0.00000000       0.00000000       0.00000000       0.00000000       0.00000000       0.13283855
Co       0.00000000       0.00000000       4.35393939       0.00000000       0.00000000      -0.13283855
2
Properties=species:S:1:pos:R:3:forces:R:3 energy=-3.5199020708148314 pbc="F F F"
Co       0.00000000       0.00000000       0.00000000       0.00000000       0.00000000       0.10930489
Co       0.00000000       0.00000000       4.41272727       0.00000000       0.00000000      -0.10930489
2
Properties=species:S:1:pos:R:3:forces:R:3 energy=-3.5139770445891867 pbc="F F F"
Co       0.00000000       0.00000000       0.00000000       0.00000000       0.00000000       0.09366852
Co       0.00000000       0.00000000       4.47151515       0.00000000       0.00000000      -0.09366852
2
Properties=species:S:1:pos:R:3:forces:R:3 energy=-3.508717054307116 pbc="F F F"
Co       0.00000000       0.00000000       0.00000000       0.00000000       0.00000000       0.08677062
Co       0.00000000       0.00000000       4.53030303       0.00000000       0.00000000      -0.08677062
2
Properties=species:S:1:pos:R:3:forces:R:3 energy=-3.5035996270443572 pbc="F F F"
Co       0.00000000       0.00000000       0.00000000       0.00000000       0.00000000       0.08877328
Co       0.00000000       0.00000000       4.58909091       0.00000000       0.00000000      -0.08877328
2
Properties=species:S:1:pos:R:3:forces:R:3 energy=-3.498123320724697 pbc="F F F"
Co       0.00000000       0.00000000       0.00000000       0.00000000       0.00000000       0.09871682
Co       0.00000000       0.00000000       4.64787879       0.00000000       0.00000000      -0.09871682
2
Properties=species:S:1:pos:R:3:forces:R:3 energy=-3.491880378430152 pbc="F F F"
Co       0.00000000       0.00000000       0.00000000       0.00000000       0.00000000       0.11437895
Co       0.00000000       0.00000000       4.70666667       0.00000000       0.00000000      -0.11437895
2
Properties=species:S:1:pos:R:3:forces:R:3 energy=-3.484626245255757 pbc="F F F"
Co       0.00000000       0.00000000       0.00000000       0.00000000       0.00000000       0.13252255
Co       0.00000000       0.00000000       4.76545455       0.00000000       0.00000000      -0.13252255
2
Properties=species:S:1:pos:R:3:forces:R:3 energy=-3.47632183175451 pbc="F F F"
Co       0.00000000       0.00000000       0.00000000       0.00000000       0.00000000       0.14950110
Co       0.00000000       0.00000000       4.82424242       0.00000000       0.00000000      -0.14950110
2
Properties=species:S:1:pos:R:3:forces:R:3 energy=-3.4671361143669888 pbc="F F F"
Co       0.00000000       0.00000000       0.00000000       0.00000000       0.00000000       0.16207427
Co       0.00000000       0.00000000       4.88303030       0.00000000       0.00000000      -0.16207427
2
Properties=species:S:1:pos:R:3:forces:R:3 energy=-3.4573927233239843 pbc="F F F"
Co       0.00000000       0.00000000       0.00000000       0.00000000       0.00000000       0.16822846
Co       0.00000000       0.00000000       4.94181818       0.00000000       0.00000000      -0.16822846
2
Properties=species:S:1:pos:R:3:forces:R:3 energy=-3.447488460513249 pbc="F F F"
Co       0.00000000       0.00000000       0.00000000       0.00000000       0.00000000       0.16766065
Co       0.00000000       0.00000000       5.00060606       0.00000000       0.00000000      -0.16766065
2
Properties=species:S:1:pos:R:3:forces:R:3 energy=-3.437785416240406 pbc="F F F"
Co       0.00000000       0.00000000       0.00000000       0.00000000       0.00000000       0.16172142
Co       0.00000000       0.00000000       5.05939394       0.00000000       0.00000000      -0.16172142
2
Properties=species:S:1:pos:R:3:forces:R:3 energy=-3.428534395683367 pbc="F F F"
Co       0.00000000       0.00000000       0.00000000       0.00000000       0.00000000       0.15267071
Co       0.00000000       0.00000000       5.11818182       0.00000000       0.00000000      -0.15267071
2
Properties=species:S:1:pos:R:3:forces:R:3 energy=-3.419859081063887 pbc="F F F"
Co       0.00000000       0.00000000       0.00000000       0.00000000       0.00000000       0.14235963
Co       0.00000000       0.00000000       5.17696970       0.00000000       0.00000000      -0.14235963
2
Properties=species:S:1:pos:R:3:forces:R:3 energy=-3.4118195048425815 pbc="F F F"
Co       0.00000000       0.00000000       0.00000000       0.00000000       0.00000000       0.13083181
Co       0.00000000       0.00000000       5.23575758       0.00000000       0.00000000      -0.13083181
2
Properties=species:S:1:pos:R:3:forces:R:3 energy=-3.4045391901780295 pbc="F F F"
Co       0.00000000       0.00000000       0.00000000       0.00000000       0.00000000       0.11615326
Co       0.00000000       0.00000000       5.29454545       0.00000000       0.00000000      -0.11615326
2
Properties=species:S:1:pos:R:3:forces:R:3 energy=-3.3982297983233547 pbc="F F F"
Co       0.00000000       0.00000000       0.00000000       0.00000000       0.00000000       0.09841305
Co       0.00000000       0.00000000       5.35333333       0.00000000       0.00000000      -0.09841305
2
Properties=species:S:1:pos:R:3:forces:R:3 energy=-3.3928356607799803 pbc="F F F"
Co       0.00000000       0.00000000       0.00000000       0.00000000       0.00000000       0.08766039
Co       0.00000000       0.00000000       5.41212121       0.00000000       0.00000000      -0.08766039
2
Properties=species:S:1:pos:R:3:forces:R:3 energy=-3.38753344165432 pbc="F F F"
Co       0.00000000       0.00000000       0.00000000       0.00000000       0.00000000       0.09551469
Co       0.00000000       0.00000000       5.47090909       0.00000000       0.00000000      -0.09551469
2
Properties=species:S:1:pos:R:3:forces:R:3 energy=-3.38155614394537 pbc="F F F"
Co       0.00000000       0.00000000       0.00000000       0.00000000       0.00000000       0.10568483
Co       0.00000000       0.00000000       5.52969697       0.00000000       0.00000000      -0.10568483
2
Properties=species:S:1:pos:R:3:forces:R:3 energy=-3.3754686806211263 pbc="F F F"
Co       0.00000000       0.00000000       0.00000000       0.00000000       0.00000000       0.09893015
Co       0.00000000       0.00000000       5.58848485       0.00000000       0.00000000      -0.09893015
2
Properties=species:S:1:pos:R:3:forces:R:3 energy=-3.3699756320035172 pbc="F F F"
Co       0.00000000       0.00000000       0.00000000       0.00000000       0.00000000       0.08986294
Co       0.00000000       0.00000000       5.64727273       0.00000000       0.00000000      -0.08986294
2
Properties=species:S:1:pos:R:3:forces:R:3 energy=-3.36446806314598 pbc="F F F"
Co       0.00000000       0.00000000       0.00000000       0.00000000       0.00000000       0.10184584
Co       0.00000000       0.00000000       5.70606061       0.00000000       0.00000000      -0.10184584
2
Properties=species:S:1:pos:R:3:forces:R:3 energy=-3.357754081917382 pbc="F F F"
Co       0.00000000       0.00000000       0.00000000       0.00000000       0.00000000       0.12421296
Co       0.00000000       0.00000000       5.76484848       0.00000000       0.00000000      -0.12421296
2
Properties=species:S:1:pos:R:3:forces:R:3 energy=-3.3505448992184017 pbc="F F F"
Co       0.00000000       0.00000000       0.00000000       0.00000000       0.00000000       0.11388271
Co       0.00000000       0.00000000       5.82363636       0.00000000       0.00000000      -0.11388271
2
Properties=species:S:1:pos:R:3:forces:R:3 energy=-3.345079509828732 pbc="F F F"
Co       0.00000000       0.00000000       0.00000000       0.00000000       0.00000000       0.06951547
Co       0.00000000       0.00000000       5.88242424       0.00000000       0.00000000      -0.06951547
2
Properties=species:S:1:pos:R:3:forces:R:3 energy=-3.342336441769422 pbc="F F F"
Co       0.00000000       0.00000000       0.00000000       0.00000000       0.00000000       0.02625898
Co       0.00000000       0.00000000       5.94121212       0.00000000       0.00000000      -0.02625898
2
Properties=species:S:1:pos:R:3:forces:R:3 energy=-3.341461804386812 pbc="F F F"
Co       0.00000000       0.00000000       0.00000000       0.00000000       0.00000000       0.00903741
Co       0.00000000       0.00000000       6.00000000       0.00000000       0.00000000      -0.00903741
