2
Properties=species:S:1:pos:R:3:forces:R:3 energy=3068.5385406543355 pbc="F F F"
Cr       0.00000000       0.00000000       0.00000000       0.00000000       0.00000000  -46383.41796875
Cr       0.00000000       0.00000000       0.18000000       0.00000000       0.00000000   46383.41796875
2
Properties=species:S:1:pos:R:3:forces:R:3 energy=1373.5334137012103 pbc="F F F"
Cr       0.00000000       0.00000000       0.00000000       0.00000000       0.00000000  -17054.93164062
Cr       0.00000000       0.00000000       0.23878788       0.00000000       0.00000000   17054.93164062
2
Properties=species:S:1:pos:R:3:forces:R:3 energy=702.0398834309407 pbc="F F F"
Cr       0.00000000       0.00000000       0.00000000       0.00000000       0.00000000   -7371.05468750
Cr       0.00000000       0.00000000       0.29757576       0.00000000       0.00000000    7371.05468750
2
Properties=species:S:1:pos:R:3:forces:R:3 energy=397.19414979153044 pbc="F F F"
Cr       0.00000000       0.00000000       0.00000000       0.00000000       0.00000000   -3538.02319336
Cr       0.00000000       0.00000000       0.35636364       0.00000000       0.00000000    3538.02319336
2
Properties=species:S:1:pos:R:3:forces:R:3 energy=245.85004884571762 pbc="F F F"
Cr       0.00000000       0.00000000       0.00000000       0.00000000       0.00000000   -1824.49475098
Cr       0.00000000       0.00000000       0.41515152       0.00000000       0.00000000    1824.49475098
2
Properties=species:S:1:pos:R:3:forces:R:3 energy=165.81101688230268 pbc="F F F"
Cr       0.00000000       0.00000000       0.00000000       0.00000000       0.00000000    -993.45355225
Cr       0.00000000       0.00000000       0.47393939       0.00000000       0.00000000     993.45355225
2
Properties=species:S:1:pos:R:3:forces:R:3 energy=121.23142707339872 pbc="F F F"
Cr       0.00000000       0.00000000       0.00000000       0.00000000       0.00000000    -569.16259766
Cr       0.00000000       0.00000000       0.53272727       0.00000000       0.00000000     569.16259766
2
Properties=species:S:1:pos:R:3:forces:R:3 energy=94.97017377348593 pbc="F F F"
Cr       0.00000000       0.00000000       0.00000000       0.00000000       0.00000000    -348.33953857
Cr       0.00000000       0.00000000       0.59151515       0.00000000       0.00000000     348.33953857
2
Properties=species:S:1:pos:R:3:forces:R:3 energy=78.11047843395028 pbc="F F F"
Cr       0.00000000       0.00000000       0.00000000       0.00000000       0.00000000    -239.51748657
Cr       0.00000000       0.00000000       0.65030303       0.00000000       0.00000000     239.51748657
2
Properties=species:S:1:pos:R:3:forces:R:3 energy=65.56235999469715 pbc="F F F"
Cr       0.00000000       0.00000000       0.00000000       0.00000000       0.00000000    -194.82383728
Cr       0.00000000       0.00000000       0.70909091       0.00000000       0.00000000     194.82383728
2
Properties=species:S:1:pos:R:3:forces:R:3 energy=54.5582250909444 pbc="F F F"
Cr       0.00000000       0.00000000       0.00000000       0.00000000       0.00000000    -182.26853943
Cr       0.00000000       0.00000000       0.76787879       0.00000000       0.00000000     182.26853943
2
Properties=species:S:1:pos:R:3:forces:R:3 energy=44.00342348581558 pbc="F F F"
Cr       0.00000000       0.00000000       0.00000000       0.00000000       0.00000000    -178.38703918
Cr       0.00000000       0.00000000       0.82666667       0.00000000       0.00000000     178.38703918
2
Properties=species:S:1:pos:R:3:forces:R:3 energy=33.619398396761895 pbc="F F F"
Cr       0.00000000       0.00000000       0.00000000       0.00000000       0.00000000    -172.34666443
Cr       0.00000000       0.00000000       0.88545455       0.00000000       0.00000000     172.34666443
2
Properties=species:S:1:pos:R:3:forces:R:3 energy=23.840687758873933 pbc="F F F"
Cr       0.00000000       0.00000000       0.00000000       0.00000000       0.00000000    -160.76243591
Cr       0.00000000       0.00000000       0.94424242       0.00000000       0.00000000     160.76243591
2
Properties=species:S:1:pos:R:3:forces:R:3 energy=14.80678556509758 pbc="F F F"
Cr       0.00000000       0.00000000       0.00000000       0.00000000       0.00000000    -143.98776245
Cr       0.00000000       0.00000000       1.00303030       0.00000000       0.00000000     143.98776245
2
Properties=species:S:1:pos:R:3:forces:R:3 energy=7.293191241668286 pbc="F F F"
Cr       0.00000000       0.00000000       0.00000000       0.00000000       0.00000000    -109.47724915
Cr       0.00000000       0.00000000       1.06181818       0.00000000       0.00000000     109.47724915
2
Properties=species:S:1:pos:R:3:forces:R:3 energy=1.9479780705283798 pbc="F F F"
Cr       0.00000000       0.00000000       0.00000000       0.00000000       0.00000000     -73.51176453
Cr       0.00000000       0.00000000       1.12060606       0.00000000       0.00000000      73.51176453
2
Properties=species:S:1:pos:R:3:forces:R:3 energy=-1.599993373319016 pbc="F F F"
Cr       0.00000000       0.00000000       0.00000000       0.00000000       0.00000000     -49.79042053
Cr       0.00000000       0.00000000       1.17939394       0.00000000       0.00000000      49.79042053
2
Properties=species:S:1:pos:R:3:forces:R:3 energy=-4.153536969966436 pbc="F F F"
Cr       0.00000000       0.00000000       0.00000000       0.00000000       0.00000000     -38.58520508
Cr       0.00000000       0.00000000       1.23818182       0.00000000       0.00000000      38.58520508
2
Properties=species:S:1:pos:R:3:forces:R:3 energy=-6.240723506695964 pbc="F F F"
Cr       0.00000000       0.00000000       0.00000000       0.00000000       0.00000000     -32.71719360
Cr       0.00000000       0.00000000       1.29696970       0.00000000       0.00000000      32.71719360
2
Properties=species:S:1:pos:R:3:forces:R:3 energy=-7.997852409911857 pbc="F F F"
Cr       0.00000000       0.00000000       0.00000000       0.00000000       0.00000000     -26.93496323
Cr       0.00000000       0.00000000       1.35575758       0.00000000       0.00000000      26.93496323
2
Properties=species:S:1:pos:R:3:forces:R:3 energy=-9.400345875067345 pbc="F F F"
Cr       0.00000000       0.00000000       0.00000000       0.00000000       0.00000000     -20.80844879
Cr       0.00000000       0.00000000       1.41454545       0.00000000       0.00000000      20.80844879
2
Properties=species:S:1:pos:R:3:forces:R:3 energy=-10.456138238056084 pbc="F F F"
Cr       0.00000000       0.00000000       0.00000000       0.00000000       0.00000000     -15.24820232
Cr       0.00000000       0.00000000       1.47333333       0.00000000       0.00000000      15.24820232
2
Properties=species:S:1:pos:R:3:forces:R:3 energy=-11.209383444305823 pbc="F F F"
Cr       0.00000000       0.00000000       0.00000000       0.00000000       0.00000000     -10.50663757
Cr       0.00000000       0.00000000       1.53212121       0.00000000       0.00000000      10.50663757
2
Properties=species:S:1:pos:R:3:forces:R:3 energy=-11.706559467525652 pbc="F F F"
Cr       0.00000000       0.00000000       0.00000000       0.00000000       0.00000000      -6.54475594
Cr       0.00000000       0.00000000       1.59090909       0.00000000       0.00000000       6.54475594
2
Properties=species:S:1:pos:R:3:forces:R:3 energy=-11.996246287323977 pbc="F F F"
Cr       0.00000000       0.00000000       0.00000000       0.00000000       0.00000000      -3.46124935
Cr       0.00000000       0.00000000       1.64969697       0.00000000       0.00000000       3.46124935
2
Properties=species:S:1:pos:R:3:forces:R:3 energy=-12.129983194901632 pbc="F F F"
Cr       0.00000000       0.00000000       0.00000000       0.00000000       0.00000000      -1.21157658
Cr       0.00000000       0.00000000       1.70848485       0.00000000       0.00000000       1.21157658
2
Properties=species:S:1:pos:R:3:forces:R:3 energy=-12.150811549387372 pbc="F F F"
Cr       0.00000000       0.00000000       0.00000000       0.00000000       0.00000000       0.41845748
Cr       0.00000000       0.00000000       1.76727273       0.00000000       0.00000000      -0.41845748
2
Properties=species:S:1:pos:R:3:forces:R:3 energy=-12.089211545378681 pbc="F F F"
Cr       0.00000000       0.00000000       0.00000000       0.00000000       0.00000000       1.61317742
Cr       0.00000000       0.00000000       1.82606061       0.00000000       0.00000000      -1.61317742
2
Properties=species:S:1:pos:R:3:forces:R:3 energy=-11.968617755008642 pbc="F F F"
Cr       0.00000000       0.00000000       0.00000000       0.00000000       0.00000000       2.42327857
Cr       0.00000000       0.00000000       1.88484848       0.00000000       0.00000000      -2.42327857
2
Properties=species:S:1:pos:R:3:forces:R:3 energy=-11.81238277528112 pbc="F F F"
Cr       0.00000000       0.00000000       0.00000000       0.00000000       0.00000000       2.82380080
Cr       0.00000000       0.00000000       1.94363636       0.00000000       0.00000000      -2.82380080
2
Properties=species:S:1:pos:R:3:forces:R:3 energy=-11.643703436864788 pbc="F F F"
Cr       0.00000000       0.00000000       0.00000000       0.00000000       0.00000000       2.86650753
Cr       0.00000000       0.00000000       2.00242424       0.00000000       0.00000000      -2.86650753
2
Properties=species:S:1:pos:R:3:forces:R:3 energy=-11.479155094648817 pbc="F F F"
Cr       0.00000000       0.00000000       0.00000000       0.00000000       0.00000000       2.71521902
Cr       0.00000000       0.00000000       2.06121212       0.00000000       0.00000000      -2.71521902
2
Properties=species:S:1:pos:R:3:forces:R:3 energy=-11.324865099271747 pbc="F F F"
Cr       0.00000000       0.00000000       0.00000000       0.00000000       0.00000000       2.53952956
Cr       0.00000000       0.00000000       2.12000000       0.00000000       0.00000000      -2.53952956
2
Properties=species:S:1:pos:R:3:forces:R:3 energy=-11.179716951796188 pbc="F F F"
Cr       0.00000000       0.00000000       0.00000000       0.00000000       0.00000000       2.40179253
Cr       0.00000000       0.00000000       2.17878788       0.00000000       0.00000000      -2.40179253
2
Properties=species:S:1:pos:R:3:forces:R:3 energy=-11.043303721153624 pbc="F F F"
Cr       0.00000000       0.00000000       0.00000000       0.00000000       0.00000000       2.21919513
Cr       0.00000000       0.00000000       2.23757576       0.00000000       0.00000000      -2.21919513
2
Properties=species:S:1:pos:R:3:forces:R:3 energy=-10.922576279636552 pbc="F F F"
Cr       0.00000000       0.00000000       0.00000000       0.00000000       0.00000000       1.84633625
Cr       0.00000000       0.00000000       2.29636364       0.00000000       0.00000000      -1.84633625
2
Properties=species:S:1:pos:R:3:forces:R:3 energy=-10.831584593241223 pbc="F F F"
Cr       0.00000000       0.00000000       0.00000000       0.00000000       0.00000000       1.20357263
Cr       0.00000000       0.00000000       2.35515152       0.00000000       0.00000000      -1.20357263
2
Properties=species:S:1:pos:R:3:forces:R:3 energy=-10.785883641819924 pbc="F F F"
Cr       0.00000000       0.00000000       0.00000000       0.00000000       0.00000000       0.31738815
Cr       0.00000000       0.00000000       2.41393939       0.00000000       0.00000000      -0.31738815
2
Properties=species:S:1:pos:R:3:forces:R:3 energy=-10.796997472475386 pbc="F F F"
Cr       0.00000000       0.00000000       0.00000000       0.00000000       0.00000000      -0.70581961
Cr       0.00000000       0.00000000       2.47272727       0.00000000       0.00000000       0.70581961
2
Properties=species:S:1:pos:R:3:forces:R:3 energy=-10.868167119431897 pbc="F F F"
Cr       0.00000000       0.00000000       0.00000000       0.00000000       0.00000000      -1.69135201
Cr       0.00000000       0.00000000       2.53151515       0.00000000       0.00000000       1.69135201
2
Properties=species:S:1:pos:R:3:forces:R:3 energy=-10.990774167947158 pbc="F F F"
Cr       0.00000000       0.00000000       0.00000000       0.00000000       0.00000000      -2.41848016
Cr       0.00000000       0.00000000       2.59030303       0.00000000       0.00000000       2.41848016
2
Properties=species:S:1:pos:R:3:forces:R:3 energy=-11.143722497716507 pbc="F F F"
Cr       0.00000000       0.00000000       0.00000000       0.00000000       0.00000000      -2.70140243
Cr       0.00000000       0.00000000       2.64909091       0.00000000       0.00000000       2.70140243
2
Properties=species:S:1:pos:R:3:forces:R:3 energy=-11.29873091491909 pbc="F F F"
Cr       0.00000000       0.00000000       0.00000000       0.00000000       0.00000000      -2.49842405
Cr       0.00000000       0.00000000       2.70787879       0.00000000       0.00000000       2.49842405
2
Properties=species:S:1:pos:R:3:forces:R:3 energy=-11.430818570734477 pbc="F F F"
Cr       0.00000000       0.00000000       0.00000000       0.00000000       0.00000000      -1.95832694
Cr       0.00000000       0.00000000       2.76666667       0.00000000       0.00000000       1.95832694
2
Properties=species:S:1:pos:R:3:forces:R:3 energy=-11.526856108336293 pbc="F F F"
Cr       0.00000000       0.00000000       0.00000000       0.00000000       0.00000000      -1.30736947
Cr       0.00000000       0.00000000       2.82545455       0.00000000       0.00000000       1.30736947
2
Properties=species:S:1:pos:R:3:forces:R:3 energy=-11.585808457096213 pbc="F F F"
Cr       0.00000000       0.00000000       0.00000000       0.00000000       0.00000000      -0.71885890
Cr       0.00000000       0.00000000       2.88424242       0.00000000       0.00000000       0.71885890
2
Properties=species:S:1:pos:R:3:forces:R:3 energy=-11.6145150777949 pbc="F F F"
Cr       0.00000000       0.00000000       0.00000000       0.00000000       0.00000000      -0.28799707
Cr       0.00000000       0.00000000       2.94303030       0.00000000       0.00000000       0.28799707
2
Properties=species:S:1:pos:R:3:forces:R:3 energy=-11.623236171113327 pbc="F F F"
Cr       0.00000000       0.00000000       0.00000000       0.00000000       0.00000000      -0.03697680
Cr       0.00000000       0.00000000       3.00181818       0.00000000       0.00000000       0.03697680
2
Properties=species:S:1:pos:R:3:forces:R:3 energy=-11.621656544862152 pbc="F F F"
Cr       0.00000000       0.00000000       0.00000000       0.00000000       0.00000000       0.07244682
Cr       0.00000000       0.00000000       3.06060606       0.00000000       0.00000000      -0.07244682
2
Properties=species:S:1:pos:R:3:forces:R:3 energy=-11.61614186068374 pbc="F F F"
Cr       0.00000000       0.00000000       0.00000000       0.00000000       0.00000000       0.10898416
Cr       0.00000000       0.00000000       3.11939394       0.00000000       0.00000000      -0.10898416
2
Properties=species:S:1:pos:R:3:forces:R:3 energy=-11.608989730811746 pbc="F F F"
Cr       0.00000000       0.00000000       0.00000000       0.00000000       0.00000000       0.13706131
Cr       0.00000000       0.00000000       3.17818182       0.00000000       0.00000000      -0.13706131
2
Properties=species:S:1:pos:R:3:forces:R:3 energy=-11.599422961363457 pbc="F F F"
Cr       0.00000000       0.00000000       0.00000000       0.00000000       0.00000000       0.19491947
Cr       0.00000000       0.00000000       3.23696970       0.00000000       0.00000000      -0.19491947
2
Properties=species:S:1:pos:R:3:forces:R:3 energy=-11.585309748436611 pbc="F F F"
Cr       0.00000000       0.00000000       0.00000000       0.00000000       0.00000000       0.29101494
Cr       0.00000000       0.00000000       3.29575758       0.00000000       0.00000000      -0.29101494
2
Properties=species:S:1:pos:R:3:forces:R:3 energy=-11.56469525973492 pbc="F F F"
Cr       0.00000000       0.00000000       0.00000000       0.00000000       0.00000000       0.41291901
Cr       0.00000000       0.00000000       3.35454545       0.00000000       0.00000000      -0.41291901
2
Properties=species:S:1:pos:R:3:forces:R:3 energy=-11.536666189357211 pbc="F F F"
Cr       0.00000000       0.00000000       0.00000000       0.00000000       0.00000000       0.53968906
Cr       0.00000000       0.00000000       3.41333333       0.00000000       0.00000000      -0.53968906
2
Properties=species:S:1:pos:R:3:forces:R:3 energy=-11.501539144824939 pbc="F F F"
Cr       0.00000000       0.00000000       0.00000000       0.00000000       0.00000000       0.65145493
Cr       0.00000000       0.00000000       3.47212121       0.00000000       0.00000000      -0.65145493
2
Properties=species:S:1:pos:R:3:forces:R:3 energy=-11.460643076289525 pbc="F F F"
Cr       0.00000000       0.00000000       0.00000000       0.00000000       0.00000000       0.73426187
Cr       0.00000000       0.00000000       3.53090909       0.00000000       0.00000000      -0.73426187
2
Properties=species:S:1:pos:R:3:forces:R:3 energy=-11.415915260746987 pbc="F F F"
Cr       0.00000000       0.00000000       0.00000000       0.00000000       0.00000000       0.78121293
Cr       0.00000000       0.00000000       3.58969697       0.00000000       0.00000000      -0.78121293
2
Properties=species:S:1:pos:R:3:forces:R:3 energy=-11.369508407226515 pbc="F F F"
Cr       0.00000000       0.00000000       0.00000000       0.00000000       0.00000000       0.79171264
Cr       0.00000000       0.00000000       3.64848485       0.00000000       0.00000000      -0.79171264
2
Properties=species:S:1:pos:R:3:forces:R:3 energy=-11.323463647870252 pbc="F F F"
Cr       0.00000000       0.00000000       0.00000000       0.00000000       0.00000000       0.76989186
Cr       0.00000000       0.00000000       3.70727273       0.00000000       0.00000000      -0.76989186
2
Properties=species:S:1:pos:R:3:forces:R:3 energy=-11.279485527815417 pbc="F F F"
Cr       0.00000000       0.00000000       0.00000000       0.00000000       0.00000000       0.72266626
Cr       0.00000000       0.00000000       3.76606061       0.00000000       0.00000000      -0.72266626
2
Properties=species:S:1:pos:R:3:forces:R:3 energy=-11.238840998080152 pbc="F F F"
Cr       0.00000000       0.00000000       0.00000000       0.00000000       0.00000000       0.65780866
Cr       0.00000000       0.00000000       3.82484848       0.00000000       0.00000000      -0.65780866
2
Properties=species:S:1:pos:R:3:forces:R:3 energy=-11.20234985981341 pbc="F F F"
Cr       0.00000000       0.00000000       0.00000000       0.00000000       0.00000000       0.58237559
Cr       0.00000000       0.00000000       3.88363636       0.00000000       0.00000000      -0.58237559
2
Properties=species:S:1:pos:R:3:forces:R:3 energy=-11.170465877297017 pbc="F F F"
Cr       0.00000000       0.00000000       0.00000000       0.00000000       0.00000000       0.50185597
Cr       0.00000000       0.00000000       3.94242424       0.00000000       0.00000000      -0.50185597
2
Properties=species:S:1:pos:R:3:forces:R:3 energy=-11.143369182984053 pbc="F F F"
Cr       0.00000000       0.00000000       0.00000000       0.00000000       0.00000000       0.42003810
Cr       0.00000000       0.00000000       4.00121212       0.00000000       0.00000000      -0.42003810
2
Properties=species:S:1:pos:R:3:forces:R:3 energy=-11.121054886846892 pbc="F F F"
Cr       0.00000000       0.00000000       0.00000000       0.00000000       0.00000000       0.33949694
Cr       0.00000000       0.00000000       4.06000000       0.00000000       0.00000000      -0.33949694
2
Properties=species:S:1:pos:R:3:forces:R:3 energy=-11.103385503122038 pbc="F F F"
Cr       0.00000000       0.00000000       0.00000000       0.00000000       0.00000000       0.26237267
Cr       0.00000000       0.00000000       4.11878788       0.00000000       0.00000000      -0.26237267
2
Properties=species:S:1:pos:R:3:forces:R:3 energy=-11.090092661253781 pbc="F F F"
Cr       0.00000000       0.00000000       0.00000000       0.00000000       0.00000000       0.19104798
Cr       0.00000000       0.00000000       4.17757576       0.00000000       0.00000000      -0.19104798
2
Properties=species:S:1:pos:R:3:forces:R:3 energy=-11.080752082278774 pbc="F F F"
Cr       0.00000000       0.00000000       0.00000000       0.00000000       0.00000000       0.12845710
Cr       0.00000000       0.00000000       4.23636364       0.00000000       0.00000000      -0.12845710
2
Properties=species:S:1:pos:R:3:forces:R:3 energy=-11.074753945230139 pbc="F F F"
Cr       0.00000000       0.00000000       0.00000000       0.00000000       0.00000000       0.07786180
Cr       0.00000000       0.00000000       4.29515152       0.00000000       0.00000000      -0.07786180
2
Properties=species:S:1:pos:R:3:forces:R:3 energy=-11.071303657078099 pbc="F F F"
Cr       0.00000000       0.00000000       0.00000000       0.00000000       0.00000000       0.04220429
Cr       0.00000000       0.00000000       4.35393939       0.00000000       0.00000000      -0.04220429
2
Properties=species:S:1:pos:R:3:forces:R:3 energy=-11.069462493258214 pbc="F F F"
Cr       0.00000000       0.00000000       0.00000000       0.00000000       0.00000000       0.02326973
Cr       0.00000000       0.00000000       4.41272727       0.00000000       0.00000000      -0.02326973
2
Properties=species:S:1:pos:R:3:forces:R:3 energy=-11.068238120703706 pbc="F F F"
Cr       0.00000000       0.00000000       0.00000000       0.00000000       0.00000000       0.02104775
Cr       0.00000000       0.00000000       4.47151515       0.00000000       0.00000000      -0.02104775
2
Properties=species:S:1:pos:R:3:forces:R:3 energy=-11.066699843550104 pbc="F F F"
Cr       0.00000000       0.00000000       0.00000000       0.00000000       0.00000000       0.03345856
Cr       0.00000000       0.00000000       4.53030303       0.00000000       0.00000000      -0.03345856
2
Properties=species:S:1:pos:R:3:forces:R:3 energy=-11.06409469480826 pbc="F F F"
Cr       0.00000000       0.00000000       0.00000000       0.00000000       0.00000000       0.05656076
Cr       0.00000000       0.00000000       4.58909091       0.00000000       0.00000000      -0.05656076
2
Properties=species:S:1:pos:R:3:forces:R:3 energy=-11.059941761422635 pbc="F F F"
Cr       0.00000000       0.00000000       0.00000000       0.00000000       0.00000000       0.08515404
Cr       0.00000000       0.00000000       4.64787879       0.00000000       0.00000000      -0.08515404
2
Properties=species:S:1:pos:R:3:forces:R:3 energy=-11.054084544491879 pbc="F F F"
Cr       0.00000000       0.00000000       0.00000000       0.00000000       0.00000000       0.11363466
Cr       0.00000000       0.00000000       4.70666667       0.00000000       0.00000000      -0.11363466
2
Properties=species:S:1:pos:R:3:forces:R:3 energy=-11.04668320949704 pbc="F F F"
Cr       0.00000000       0.00000000       0.00000000       0.00000000       0.00000000       0.13696869
Cr       0.00000000       0.00000000       4.76545455       0.00000000       0.00000000      -0.13696869
2
Properties=species:S:1:pos:R:3:forces:R:3 energy=-11.038151640628877 pbc="F F F"
Cr       0.00000000       0.00000000       0.00000000       0.00000000       0.00000000       0.15166005
Cr       0.00000000       0.00000000       4.82424242       0.00000000       0.00000000      -0.15166005
2
Properties=species:S:1:pos:R:3:forces:R:3 energy=-11.02904679556021 pbc="F F F"
Cr       0.00000000       0.00000000       0.00000000       0.00000000       0.00000000       0.15649843
Cr       0.00000000       0.00000000       4.88303030       0.00000000       0.00000000      -0.15649843
2
Properties=species:S:1:pos:R:3:forces:R:3 energy=-11.019918927893093 pbc="F F F"
Cr       0.00000000       0.00000000       0.00000000       0.00000000       0.00000000       0.15286887
Cr       0.00000000       0.00000000       4.94181818       0.00000000       0.00000000      -0.15286887
2
Properties=species:S:1:pos:R:3:forces:R:3 energy=-11.011169591055983 pbc="F F F"
Cr       0.00000000       0.00000000       0.00000000       0.00000000       0.00000000       0.14431918
Cr       0.00000000       0.00000000       5.00060606       0.00000000       0.00000000      -0.14431918
2
Properties=species:S:1:pos:R:3:forces:R:3 energy=-11.002959195251488 pbc="F F F"
Cr       0.00000000       0.00000000       0.00000000       0.00000000       0.00000000       0.13525602
Cr       0.00000000       0.00000000       5.05939394       0.00000000       0.00000000      -0.13525602
2
Properties=species:S:1:pos:R:3:forces:R:3 energy=-10.995210806314523 pbc="F F F"
Cr       0.00000000       0.00000000       0.00000000       0.00000000       0.00000000       0.12893802
Cr       0.00000000       0.00000000       5.11818182       0.00000000       0.00000000      -0.12893802
2
Properties=species:S:1:pos:R:3:forces:R:3 energy=-10.98774092580654 pbc="F F F"
Cr       0.00000000       0.00000000       0.00000000       0.00000000       0.00000000       0.12545604
Cr       0.00000000       0.00000000       5.17696970       0.00000000       0.00000000      -0.12545604
2
Properties=species:S:1:pos:R:3:forces:R:3 energy=-10.980477001619581 pbc="F F F"
Cr       0.00000000       0.00000000       0.00000000       0.00000000       0.00000000       0.12109367
Cr       0.00000000       0.00000000       5.23575758       0.00000000       0.00000000      -0.12109367
2
Properties=species:S:1:pos:R:3:forces:R:3 energy=-10.973612015082383 pbc="F F F"
Cr       0.00000000       0.00000000       0.00000000       0.00000000       0.00000000       0.11149520
Cr       0.00000000       0.00000000       5.29454545       0.00000000       0.00000000      -0.11149520
2
Properties=species:S:1:pos:R:3:forces:R:3 energy=-10.967406191146377 pbc="F F F"
Cr       0.00000000       0.00000000       0.00000000       0.00000000       0.00000000       0.10051562
Cr       0.00000000       0.00000000       5.35333333       0.00000000       0.00000000      -0.10051562
2
Properties=species:S:1:pos:R:3:forces:R:3 energy=-10.961481322157152 pbc="F F F"
Cr       0.00000000       0.00000000       0.00000000       0.00000000       0.00000000       0.10514691
Cr       0.00000000       0.00000000       5.41212121       0.00000000       0.00000000      -0.10514691
2
Properties=species:S:1:pos:R:3:forces:R:3 energy=-10.9546225271417 pbc="F F F"
Cr       0.00000000       0.00000000       0.00000000       0.00000000       0.00000000       0.12939799
Cr       0.00000000       0.00000000       5.47090909       0.00000000       0.00000000      -0.12939799
2
Properties=species:S:1:pos:R:3:forces:R:3 energy=-10.94657119753714 pbc="F F F"
Cr       0.00000000       0.00000000       0.00000000       0.00000000       0.00000000       0.13895090
Cr       0.00000000       0.00000000       5.52969697       0.00000000       0.00000000      -0.13895090
2
Properties=species:S:1:pos:R:3:forces:R:3 energy=-10.9389224569915 pbc="F F F"
Cr       0.00000000       0.00000000       0.00000000       0.00000000       0.00000000       0.11789834
Cr       0.00000000       0.00000000       5.58848485       0.00000000       0.00000000      -0.11789834
2
Properties=species:S:1:pos:R:3:forces:R:3 energy=-10.932722960298841 pbc="F F F"
Cr       0.00000000       0.00000000       0.00000000       0.00000000       0.00000000       0.09598365
Cr       0.00000000       0.00000000       5.64727273       0.00000000       0.00000000      -0.09598365
2
Properties=species:S:1:pos:R:3:forces:R:3 energy=-10.927081366161577 pbc="F F F"
Cr       0.00000000       0.00000000       0.00000000       0.00000000       0.00000000       0.10103624
Cr       0.00000000       0.00000000       5.70606061       0.00000000       0.00000000      -0.10103624
2
Properties=species:S:1:pos:R:3:forces:R:3 energy=-10.920535977436199 pbc="F F F"
Cr       0.00000000       0.00000000       0.00000000       0.00000000       0.00000000       0.11984646
Cr       0.00000000       0.00000000       5.76484848       0.00000000       0.00000000      -0.11984646
2
Properties=species:S:1:pos:R:3:forces:R:3 energy=-10.913581111512547 pbc="F F F"
Cr       0.00000000       0.00000000       0.00000000       0.00000000       0.00000000       0.11031539
Cr       0.00000000       0.00000000       5.82363636       0.00000000       0.00000000      -0.11031539
2
Properties=species:S:1:pos:R:3:forces:R:3 energy=-10.908228338852267 pbc="F F F"
Cr       0.00000000       0.00000000       0.00000000       0.00000000       0.00000000       0.06929556
Cr       0.00000000       0.00000000       5.88242424       0.00000000       0.00000000      -0.06929556
2
Properties=species:S:1:pos:R:3:forces:R:3 energy=-10.905422121417963 pbc="F F F"
Cr       0.00000000       0.00000000       0.00000000       0.00000000       0.00000000       0.02834142
Cr       0.00000000       0.00000000       5.94121212       0.00000000       0.00000000      -0.02834142
2
Properties=species:S:1:pos:R:3:forces:R:3 energy=-10.904398944324537 pbc="F F F"
Cr       0.00000000       0.00000000       0.00000000       0.00000000       0.00000000       0.01175158
Cr       0.00000000       0.00000000       6.00000000       0.00000000       0.00000000      -0.01175158
