2
Properties=species:S:1:pos:R:3:forces:R:3 energy=9864.99175964675 pbc="F F F"
Cs       0.00000000       0.00000000       0.00000000       0.00000000       0.00000000 -166775.09375000
Cs       0.00000000       0.00000000       0.18000000       0.00000000       0.00000000  166775.09375000
2
Properties=species:S:1:pos:R:3:forces:R:3 energy=3965.166076053 pbc="F F F"
Cs       0.00000000       0.00000000       0.00000000       0.00000000       0.00000000  -56814.85937500
Cs       0.00000000       0.00000000       0.23878788       0.00000000       0.00000000   56814.85937500
2
Properties=species:S:1:pos:R:3:forces:R:3 energy=1797.4662469514376 pbc="F F F"
Cs       0.00000000       0.00000000       0.00000000       0.00000000       0.00000000  -22802.81054688
Cs       0.00000000       0.00000000       0.29757576       0.00000000       0.00000000   22802.81054688
2
Properties=species:S:1:pos:R:3:forces:R:3 energy=885.4673455842501 pbc="F F F"
Cs       0.00000000       0.00000000       0.00000000       0.00000000       0.00000000  -10130.74316406
Cs       0.00000000       0.00000000       0.35636364       0.00000000       0.00000000   10130.74316406
2
Properties=species:S:1:pos:R:3:forces:R:3 energy=466.8716729768282 pbc="F F F"
Cs       0.00000000       0.00000000       0.00000000       0.00000000       0.00000000   -4830.83496094
Cs       0.00000000       0.00000000       0.41515152       0.00000000       0.00000000    4830.83496094
2
Properties=species:S:1:pos:R:3:forces:R:3 energy=262.1288751252657 pbc="F F F"
Cs       0.00000000       0.00000000       0.00000000       0.00000000       0.00000000   -2435.37329102
Cs       0.00000000       0.00000000       0.47393939       0.00000000       0.00000000    2435.37329102
2
Properties=species:S:1:pos:R:3:forces:R:3 energy=156.64236389558891 pbc="F F F"
Cs       0.00000000       0.00000000       0.00000000       0.00000000       0.00000000   -1287.79541016
Cs       0.00000000       0.00000000       0.53272727       0.00000000       0.00000000    1287.79541016
2
Properties=species:S:1:pos:R:3:forces:R:3 energy=99.75795685292383 pbc="F F F"
Cs       0.00000000       0.00000000       0.00000000       0.00000000       0.00000000    -710.84686279
Cs       0.00000000       0.00000000       0.59151515       0.00000000       0.00000000     710.84686279
2
Properties=species:S:1:pos:R:3:forces:R:3 energy=67.7850946108554 pbc="F F F"
Cs       0.00000000       0.00000000       0.00000000       0.00000000       0.00000000    -408.16610718
Cs       0.00000000       0.00000000       0.65030303       0.00000000       0.00000000     408.16610718
2
Properties=species:S:1:pos:R:3:forces:R:3 energy=49.111964578622825 pbc="F F F"
Cs       0.00000000       0.00000000       0.00000000       0.00000000       0.00000000    -243.18545532
Cs       0.00000000       0.00000000       0.70909091       0.00000000       0.00000000     243.18545532
2
Properties=species:S:1:pos:R:3:forces:R:3 energy=37.80186402716269 pbc="F F F"
Cs       0.00000000       0.00000000       0.00000000       0.00000000       0.00000000    -150.18536377
Cs       0.00000000       0.00000000       0.76787879       0.00000000       0.00000000     150.18536377
2
Properties=species:S:1:pos:R:3:forces:R:3 energy=30.69740999376294 pbc="F F F"
Cs       0.00000000       0.00000000       0.00000000       0.00000000       0.00000000     -96.27932739
Cs       0.00000000       0.00000000       0.82666667       0.00000000       0.00000000      96.27932739
2
Properties=species:S:1:pos:R:3:forces:R:3 energy=26.055177106785035 pbc="F F F"
Cs       0.00000000       0.00000000       0.00000000       0.00000000       0.00000000     -64.38893127
Cs       0.00000000       0.00000000       0.88545455       0.00000000       0.00000000      64.38893127
2
Properties=species:S:1:pos:R:3:forces:R:3 energy=22.878081706248313 pbc="F F F"
Cs       0.00000000       0.00000000       0.00000000       0.00000000       0.00000000     -45.32060242
Cs       0.00000000       0.00000000       0.94424242       0.00000000       0.00000000      45.32060242
2
Properties=species:S:1:pos:R:3:forces:R:3 energy=20.57714788578071 pbc="F F F"
Cs       0.00000000       0.00000000       0.00000000       0.00000000       0.00000000     -33.94717026
Cs       0.00000000       0.00000000       1.00303030       0.00000000       0.00000000      33.94717026
2
Properties=species:S:1:pos:R:3:forces:R:3 energy=18.794705815851913 pbc="F F F"
Cs       0.00000000       0.00000000       0.00000000       0.00000000       0.00000000     -27.30699921
Cs       0.00000000       0.00000000       1.06181818       0.00000000       0.00000000      27.30699921
2
Properties=species:S:1:pos:R:3:forces:R:3 energy=17.30897472186025 pbc="F F F"
Cs       0.00000000       0.00000000       0.00000000       0.00000000       0.00000000     -23.62439728
Cs       0.00000000       0.00000000       1.12060606       0.00000000       0.00000000      23.62439728
2
Properties=species:S:1:pos:R:3:forces:R:3 energy=15.981178779097187 pbc="F F F"
Cs       0.00000000       0.00000000       0.00000000       0.00000000       0.00000000     -21.78512955
Cs       0.00000000       0.00000000       1.17939394       0.00000000       0.00000000      21.78512955
2
Properties=species:S:1:pos:R:3:forces:R:3 energy=14.726265501288127 pbc="F F F"
Cs       0.00000000       0.00000000       0.00000000       0.00000000       0.00000000     -21.03841591
Cs       0.00000000       0.00000000       1.23818182       0.00000000       0.00000000      21.03841591
2
Properties=species:S:1:pos:R:3:forces:R:3 energy=13.497373239873502 pbc="F F F"
Cs       0.00000000       0.00000000       0.00000000       0.00000000       0.00000000     -20.81263924
Cs       0.00000000       0.00000000       1.29696970       0.00000000       0.00000000      20.81263924
2
Properties=species:S:1:pos:R:3:forces:R:3 energy=12.278959017180163 pbc="F F F"
Cs       0.00000000       0.00000000       0.00000000       0.00000000       0.00000000     -20.59996223
Cs       0.00000000       0.00000000       1.35575758       0.00000000       0.00000000      20.59996223
2
Properties=species:S:1:pos:R:3:forces:R:3 energy=11.084175911755855 pbc="F F F"
Cs       0.00000000       0.00000000       0.00000000       0.00000000       0.00000000     -19.94276047
Cs       0.00000000       0.00000000       1.41454545       0.00000000       0.00000000      19.94276047
2
Properties=species:S:1:pos:R:3:forces:R:3 energy=9.947416282849002 pbc="F F F"
Cs       0.00000000       0.00000000       0.00000000       0.00000000       0.00000000     -18.62921715
Cs       0.00000000       0.00000000       1.47333333       0.00000000       0.00000000      18.62921715
2
Properties=species:S:1:pos:R:3:forces:R:3 energy=8.901539939833297 pbc="F F F"
Cs       0.00000000       0.00000000       0.00000000       0.00000000       0.00000000     -16.92678452
Cs       0.00000000       0.00000000       1.53212121       0.00000000       0.00000000      16.92678452
2
Properties=species:S:1:pos:R:3:forces:R:3 energy=7.957453106150942 pbc="F F F"
Cs       0.00000000       0.00000000       0.00000000       0.00000000       0.00000000     -15.19465256
Cs       0.00000000       0.00000000       1.59090909       0.00000000       0.00000000      15.19465256
2
Properties=species:S:1:pos:R:3:forces:R:3 energy=7.116128537524224 pbc="F F F"
Cs       0.00000000       0.00000000       0.00000000       0.00000000       0.00000000     -13.40563679
Cs       0.00000000       0.00000000       1.64969697       0.00000000       0.00000000      13.40563679
2
Properties=species:S:1:pos:R:3:forces:R:3 energy=6.384131332699019 pbc="F F F"
Cs       0.00000000       0.00000000       0.00000000       0.00000000       0.00000000     -11.47857189
Cs       0.00000000       0.00000000       1.70848485       0.00000000       0.00000000      11.47857189
2
Properties=species:S:1:pos:R:3:forces:R:3 energy=5.7671749640083805 pbc="F F F"
Cs       0.00000000       0.00000000       0.00000000       0.00000000       0.00000000      -9.52152157
Cs       0.00000000       0.00000000       1.76727273       0.00000000       0.00000000       9.52152157
2
Properties=species:S:1:pos:R:3:forces:R:3 energy=5.261274035987515 pbc="F F F"
Cs       0.00000000       0.00000000       0.00000000       0.00000000       0.00000000      -7.73551512
Cs       0.00000000       0.00000000       1.82606061       0.00000000       0.00000000       7.73551512
2
Properties=species:S:1:pos:R:3:forces:R:3 energy=4.850362959021799 pbc="F F F"
Cs       0.00000000       0.00000000       0.00000000       0.00000000       0.00000000      -6.31943369
Cs       0.00000000       0.00000000       1.88484848       0.00000000       0.00000000       6.31943369
2
Properties=species:S:1:pos:R:3:forces:R:3 energy=4.508508481680397 pbc="F F F"
Cs       0.00000000       0.00000000       0.00000000       0.00000000       0.00000000      -5.39658403
Cs       0.00000000       0.00000000       1.94363636       0.00000000       0.00000000       5.39658403
2
Properties=species:S:1:pos:R:3:forces:R:3 energy=4.206403248049293 pbc="F F F"
Cs       0.00000000       0.00000000       0.00000000       0.00000000       0.00000000      -4.95080805
Cs       0.00000000       0.00000000       2.00242424       0.00000000       0.00000000       4.95080805
2
Properties=species:S:1:pos:R:3:forces:R:3 energy=3.920240465172481 pbc="F F F"
Cs       0.00000000       0.00000000       0.00000000       0.00000000       0.00000000      -4.81788826
Cs       0.00000000       0.00000000       2.06121212       0.00000000       0.00000000       4.81788826
2
Properties=species:S:1:pos:R:3:forces:R:3 energy=3.637984299011046 pbc="F F F"
Cs       0.00000000       0.00000000       0.00000000       0.00000000       0.00000000      -4.78842545
Cs       0.00000000       0.00000000       2.12000000       0.00000000       0.00000000       4.78842545
2
Properties=species:S:1:pos:R:3:forces:R:3 energy=3.357642066087789 pbc="F F F"
Cs       0.00000000       0.00000000       0.00000000       0.00000000       0.00000000      -4.74104786
Cs       0.00000000       0.00000000       2.17878788       0.00000000       0.00000000       4.74104786
2
Properties=species:S:1:pos:R:3:forces:R:3 energy=3.0817131289582753 pbc="F F F"
Cs       0.00000000       0.00000000       0.00000000       0.00000000       0.00000000      -4.63618135
Cs       0.00000000       0.00000000       2.23757576       0.00000000       0.00000000       4.63618135
2
Properties=species:S:1:pos:R:3:forces:R:3 energy=2.813339863501997 pbc="F F F"
Cs       0.00000000       0.00000000       0.00000000       0.00000000       0.00000000      -4.49236012
Cs       0.00000000       0.00000000       2.29636364       0.00000000       0.00000000       4.49236012
2
Properties=species:S:1:pos:R:3:forces:R:3 energy=2.5529781498008624 pbc="F F F"
Cs       0.00000000       0.00000000       0.00000000       0.00000000       0.00000000      -4.37543869
Cs       0.00000000       0.00000000       2.35515152       0.00000000       0.00000000       4.37543869
2
Properties=species:S:1:pos:R:3:forces:R:3 energy=2.2973833747544554 pbc="F F F"
Cs       0.00000000       0.00000000       0.00000000       0.00000000       0.00000000      -4.33339643
Cs       0.00000000       0.00000000       2.41393939       0.00000000       0.00000000       4.33339643
2
Properties=species:S:1:pos:R:3:forces:R:3 energy=2.042187978506525 pbc="F F F"
Cs       0.00000000       0.00000000       0.00000000       0.00000000       0.00000000      -4.35590601
Cs       0.00000000       0.00000000       2.47272727       0.00000000       0.00000000       4.35590601
2
Properties=species:S:1:pos:R:3:forces:R:3 energy=1.784883347694252 pbc="F F F"
Cs       0.00000000       0.00000000       0.00000000       0.00000000       0.00000000      -4.39643097
Cs       0.00000000       0.00000000       2.53151515       0.00000000       0.00000000       4.39643097
2
Properties=species:S:1:pos:R:3:forces:R:3 energy=1.5258848470802093 pbc="F F F"
Cs       0.00000000       0.00000000       0.00000000       0.00000000       0.00000000      -4.40619564
Cs       0.00000000       0.00000000       2.59030303       0.00000000       0.00000000       4.40619564
2
Properties=species:S:1:pos:R:3:forces:R:3 energy=1.2681758400229157 pbc="F F F"
Cs       0.00000000       0.00000000       0.00000000       0.00000000       0.00000000      -4.34723711
Cs       0.00000000       0.00000000       2.64909091       0.00000000       0.00000000       4.34723711
2
Properties=species:S:1:pos:R:3:forces:R:3 energy=1.0165833902565495 pbc="F F F"
Cs       0.00000000       0.00000000       0.00000000       0.00000000       0.00000000      -4.19558620
Cs       0.00000000       0.00000000       2.70787879       0.00000000       0.00000000       4.19558620
2
Properties=species:S:1:pos:R:3:forces:R:3 energy=0.7768226142856194 pbc="F F F"
Cs       0.00000000       0.00000000       0.00000000       0.00000000       0.00000000      -3.94531560
Cs       0.00000000       0.00000000       2.76666667       0.00000000       0.00000000       3.94531560
2
Properties=species:S:1:pos:R:3:forces:R:3 energy=0.5543862452688885 pbc="F F F"
Cs       0.00000000       0.00000000       0.00000000       0.00000000       0.00000000      -3.60996485
Cs       0.00000000       0.00000000       2.82545455       0.00000000       0.00000000       3.60996485
2
Properties=species:S:1:pos:R:3:forces:R:3 energy=0.3535035798776377 pbc="F F F"
Cs       0.00000000       0.00000000       0.00000000       0.00000000       0.00000000      -3.21736884
Cs       0.00000000       0.00000000       2.88424242       0.00000000       0.00000000       3.21736884
2
Properties=species:S:1:pos:R:3:forces:R:3 energy=0.1765712610656614 pbc="F F F"
Cs       0.00000000       0.00000000       0.00000000       0.00000000       0.00000000      -2.80070019
Cs       0.00000000       0.00000000       2.94303030       0.00000000       0.00000000       2.80070019
2
Properties=species:S:1:pos:R:3:forces:R:3 energy=0.024068266798661857 pbc="F F F"
Cs       0.00000000       0.00000000       0.00000000       0.00000000       0.00000000      -2.39095831
Cs       0.00000000       0.00000000       3.00181818       0.00000000       0.00000000       2.39095831
2
Properties=species:S:1:pos:R:3:forces:R:3 energy=-0.10517245732430938 pbc="F F F"
Cs       0.00000000       0.00000000       0.00000000       0.00000000       0.00000000      -2.01281404
Cs       0.00000000       0.00000000       3.06060606       0.00000000       0.00000000       2.01281404
2
Properties=species:S:1:pos:R:3:forces:R:3 energy=-0.213534240016504 pbc="F F F"
Cs       0.00000000       0.00000000       0.00000000       0.00000000       0.00000000      -1.68262291
Cs       0.00000000       0.00000000       3.11939394       0.00000000       0.00000000       1.68262291
2
Properties=species:S:1:pos:R:3:forces:R:3 energy=-0.3040981380031368 pbc="F F F"
Cs       0.00000000       0.00000000       0.00000000       0.00000000       0.00000000      -1.40783310
Cs       0.00000000       0.00000000       3.17818182       0.00000000       0.00000000       1.40783310
2
Properties=species:S:1:pos:R:3:forces:R:3 energy=-0.38014586229432556 pbc="F F F"
Cs       0.00000000       0.00000000       0.00000000       0.00000000       0.00000000      -1.18823516
Cs       0.00000000       0.00000000       3.23696970       0.00000000       0.00000000       1.18823516
2
Properties=species:S:1:pos:R:3:forces:R:3 energy=-0.4447926763457419 pbc="F F F"
Cs       0.00000000       0.00000000       0.00000000       0.00000000       0.00000000      -1.01892138
Cs       0.00000000       0.00000000       3.29575758       0.00000000       0.00000000       1.01892138
2
Properties=species:S:1:pos:R:3:forces:R:3 energy=-0.500801383279517 pbc="F F F"
Cs       0.00000000       0.00000000       0.00000000       0.00000000       0.00000000      -0.89321697
Cs       0.00000000       0.00000000       3.35454545       0.00000000       0.00000000       0.89321697
2
Properties=species:S:1:pos:R:3:forces:R:3 energy=-0.5505286354165495 pbc="F F F"
Cs       0.00000000       0.00000000       0.00000000       0.00000000       0.00000000      -0.80399758
Cs       0.00000000       0.00000000       3.41333333       0.00000000       0.00000000       0.80399758
2
Properties=species:S:1:pos:R:3:forces:R:3 energy=-0.5958935885689977 pbc="F F F"
Cs       0.00000000       0.00000000       0.00000000       0.00000000       0.00000000      -0.74338764
Cs       0.00000000       0.00000000       3.47212121       0.00000000       0.00000000       0.74338764
2
Properties=species:S:1:pos:R:3:forces:R:3 energy=-0.6383124263379938 pbc="F F F"
Cs       0.00000000       0.00000000       0.00000000       0.00000000       0.00000000      -0.70209521
Cs       0.00000000       0.00000000       3.53090909       0.00000000       0.00000000       0.70209521
2
Properties=species:S:1:pos:R:3:forces:R:3 energy=-0.6786164899662227 pbc="F F F"
Cs       0.00000000       0.00000000       0.00000000       0.00000000       0.00000000      -0.66965729
Cs       0.00000000       0.00000000       3.58969697       0.00000000       0.00000000       0.66965729
2
Properties=species:S:1:pos:R:3:forces:R:3 energy=-0.7170220706623542 pbc="F F F"
Cs       0.00000000       0.00000000       0.00000000       0.00000000       0.00000000      -0.63597172
Cs       0.00000000       0.00000000       3.64848485       0.00000000       0.00000000       0.63597172
2
Properties=species:S:1:pos:R:3:forces:R:3 energy=-0.7532146349238882 pbc="F F F"
Cs       0.00000000       0.00000000       0.00000000       0.00000000       0.00000000      -0.59342873
Cs       0.00000000       0.00000000       3.70727273       0.00000000       0.00000000       0.59342873
2
Properties=species:S:1:pos:R:3:forces:R:3 energy=-0.7865513532005457 pbc="F F F"
Cs       0.00000000       0.00000000       0.00000000       0.00000000       0.00000000      -0.53861833
Cs       0.00000000       0.00000000       3.76606061       0.00000000       0.00000000       0.53861833
2
Properties=species:S:1:pos:R:3:forces:R:3 energy=-0.8163254670846922 pbc="F F F"
Cs       0.00000000       0.00000000       0.00000000       0.00000000       0.00000000      -0.47282603
Cs       0.00000000       0.00000000       3.82484848       0.00000000       0.00000000       0.47282603
2
Properties=species:S:1:pos:R:3:forces:R:3 energy=-0.8420260416015355 pbc="F F F"
Cs       0.00000000       0.00000000       0.00000000       0.00000000       0.00000000      -0.40105096
Cs       0.00000000       0.00000000       3.88363636       0.00000000       0.00000000       0.40105096
2
Properties=species:S:1:pos:R:3:forces:R:3 energy=-0.8634934990699215 pbc="F F F"
Cs       0.00000000       0.00000000       0.00000000       0.00000000       0.00000000      -0.32996392
Cs       0.00000000       0.00000000       3.94242424       0.00000000       0.00000000       0.32996392
2
Properties=species:S:1:pos:R:3:forces:R:3 energy=-0.8809541850445711 pbc="F F F"
Cs       0.00000000       0.00000000       0.00000000       0.00000000       0.00000000      -0.26557484
Cs       0.00000000       0.00000000       4.00121212       0.00000000       0.00000000       0.26557484
2
Properties=species:S:1:pos:R:3:forces:R:3 energy=-0.8949242513666348 pbc="F F F"
Cs       0.00000000       0.00000000       0.00000000       0.00000000       0.00000000      -0.21157861
Cs       0.00000000       0.00000000       4.06000000       0.00000000       0.00000000       0.21157861
2
Properties=species:S:1:pos:R:3:forces:R:3 energy=-0.9060542834858288 pbc="F F F"
Cs       0.00000000       0.00000000       0.00000000       0.00000000       0.00000000      -0.16892603
Cs       0.00000000       0.00000000       4.11878788       0.00000000       0.00000000       0.16892603
2
Properties=species:S:1:pos:R:3:forces:R:3 energy=-0.9149866283236431 pbc="F F F"
Cs       0.00000000       0.00000000       0.00000000       0.00000000       0.00000000      -0.13649814
Cs       0.00000000       0.00000000       4.17757576       0.00000000       0.00000000       0.13649814
2
Properties=species:S:1:pos:R:3:forces:R:3 energy=-0.9222629736038269 pbc="F F F"
Cs       0.00000000       0.00000000       0.00000000       0.00000000       0.00000000      -0.11223859
Cs       0.00000000       0.00000000       4.23636364       0.00000000       0.00000000       0.11223859
2
Properties=species:S:1:pos:R:3:forces:R:3 energy=-0.9283016962954841 pbc="F F F"
Cs       0.00000000       0.00000000       0.00000000       0.00000000       0.00000000      -0.09403758
Cs       0.00000000       0.00000000       4.29515152       0.00000000       0.00000000       0.09403758
2
Properties=species:S:1:pos:R:3:forces:R:3 energy=-0.9334038595075045 pbc="F F F"
Cs       0.00000000       0.00000000       0.00000000       0.00000000       0.00000000      -0.08011644
Cs       0.00000000       0.00000000       4.35393939       0.00000000       0.00000000       0.08011644
2
Properties=species:S:1:pos:R:3:forces:R:3 energy=-0.9377776143389647 pbc="F F F"
Cs       0.00000000       0.00000000       0.00000000       0.00000000       0.00000000      -0.06907213
Cs       0.00000000       0.00000000       4.41272727       0.00000000       0.00000000       0.06907213
2
Properties=species:S:1:pos:R:3:forces:R:3 energy=-0.9415613110181859 pbc="F F F"
Cs       0.00000000       0.00000000       0.00000000       0.00000000       0.00000000      -0.05990389
Cs       0.00000000       0.00000000       4.47151515       0.00000000       0.00000000       0.05990389
2
Properties=species:S:1:pos:R:3:forces:R:3 energy=-0.9448485155985351 pbc="F F F"
Cs       0.00000000       0.00000000       0.00000000       0.00000000       0.00000000      -0.05217509
Cs       0.00000000       0.00000000       4.53030303       0.00000000       0.00000000       0.05217509
2
Properties=species:S:1:pos:R:3:forces:R:3 energy=-0.9477297460490737 pbc="F F F"
Cs       0.00000000       0.00000000       0.00000000       0.00000000       0.00000000      -0.04619978
Cs       0.00000000       0.00000000       4.58909091       0.00000000       0.00000000       0.04619978
2
Properties=species:S:1:pos:R:3:forces:R:3 energy=-0.9503340019808443 pbc="F F F"
Cs       0.00000000       0.00000000       0.00000000       0.00000000       0.00000000      -0.04295391
Cs       0.00000000       0.00000000       4.64787879       0.00000000       0.00000000       0.04295391
2
Properties=species:S:1:pos:R:3:forces:R:3 energy=-0.9528539709960419 pbc="F F F"
Cs       0.00000000       0.00000000       0.00000000       0.00000000       0.00000000      -0.04344733
Cs       0.00000000       0.00000000       4.70666667       0.00000000       0.00000000       0.04344733
2
Properties=species:S:1:pos:R:3:forces:R:3 energy=-0.9555146050409966 pbc="F F F"
Cs       0.00000000       0.00000000       0.00000000       0.00000000       0.00000000      -0.04752862
Cs       0.00000000       0.00000000       4.76545455       0.00000000       0.00000000       0.04752862
2
Properties=species:S:1:pos:R:3:forces:R:3 energy=-0.9584612617110099 pbc="F F F"
Cs       0.00000000       0.00000000       0.00000000       0.00000000       0.00000000      -0.05243747
Cs       0.00000000       0.00000000       4.82424242       0.00000000       0.00000000       0.05243747
2
Properties=species:S:1:pos:R:3:forces:R:3 energy=-0.9615718332981074 pbc="F F F"
Cs       0.00000000       0.00000000       0.00000000       0.00000000       0.00000000      -0.05171430
Cs       0.00000000       0.00000000       4.88303030       0.00000000       0.00000000       0.05171430
2
Properties=species:S:1:pos:R:3:forces:R:3 energy=-0.9642357333285593 pbc="F F F"
Cs       0.00000000       0.00000000       0.00000000       0.00000000       0.00000000      -0.03534356
Cs       0.00000000       0.00000000       4.94181818       0.00000000       0.00000000       0.03534356
2
Properties=species:S:1:pos:R:3:forces:R:3 energy=-0.9651956085377099 pbc="F F F"
Cs       0.00000000       0.00000000       0.00000000       0.00000000       0.00000000       0.00805659
Cs       0.00000000       0.00000000       5.00060606       0.00000000       0.00000000      -0.00805659
2
Properties=species:S:1:pos:R:3:forces:R:3 energy=-0.9625965255420952 pbc="F F F"
Cs       0.00000000       0.00000000       0.00000000       0.00000000       0.00000000       0.08639485
Cs       0.00000000       0.00000000       5.05939394       0.00000000       0.00000000      -0.08639485
2
Properties=species:S:1:pos:R:3:forces:R:3 energy=-0.9544013643857314 pbc="F F F"
Cs       0.00000000       0.00000000       0.00000000       0.00000000       0.00000000       0.19657193
Cs       0.00000000       0.00000000       5.11818182       0.00000000       0.00000000      -0.19657193
2
Properties=species:S:1:pos:R:3:forces:R:3 energy=-0.9392834404951426 pbc="F F F"
Cs       0.00000000       0.00000000       0.00000000       0.00000000       0.00000000       0.31626216
Cs       0.00000000       0.00000000       5.17696970       0.00000000       0.00000000      -0.31626216
2
Properties=species:S:1:pos:R:3:forces:R:3 energy=-0.917863489490191 pbc="F F F"
Cs       0.00000000       0.00000000       0.00000000       0.00000000       0.00000000       0.40305150
Cs       0.00000000       0.00000000       5.23575758       0.00000000       0.00000000      -0.40305150
2
Properties=species:S:1:pos:R:3:forces:R:3 energy=-0.8932455200463264 pbc="F F F"
Cs       0.00000000       0.00000000       0.00000000       0.00000000       0.00000000       0.42375141
Cs       0.00000000       0.00000000       5.29454545       0.00000000       0.00000000      -0.42375141
2
Properties=species:S:1:pos:R:3:forces:R:3 energy=-0.8684399527812059 pbc="F F F"
Cs       0.00000000       0.00000000       0.00000000       0.00000000       0.00000000       0.42857051
Cs       0.00000000       0.00000000       5.35333333       0.00000000       0.00000000      -0.42857051
2
Properties=species:S:1:pos:R:3:forces:R:3 energy=-0.8402539104277941 pbc="F F F"
Cs       0.00000000       0.00000000       0.00000000       0.00000000       0.00000000       0.56112385
Cs       0.00000000       0.00000000       5.41212121       0.00000000       0.00000000      -0.56112385
2
Properties=species:S:1:pos:R:3:forces:R:3 energy=-0.7998978130633994 pbc="F F F"
Cs       0.00000000       0.00000000       0.00000000       0.00000000       0.00000000       0.81206477
Cs       0.00000000       0.00000000       5.47090909       0.00000000       0.00000000      -0.81206477
2
Properties=species:S:1:pos:R:3:forces:R:3 energy=-0.7477657862356953 pbc="F F F"
Cs       0.00000000       0.00000000       0.00000000       0.00000000       0.00000000       0.91933942
Cs       0.00000000       0.00000000       5.52969697       0.00000000       0.00000000      -0.91933942
2
Properties=species:S:1:pos:R:3:forces:R:3 energy=-0.6960764420338409 pbc="F F F"
Cs       0.00000000       0.00000000       0.00000000       0.00000000       0.00000000       0.82148647
Cs       0.00000000       0.00000000       5.58848485       0.00000000       0.00000000      -0.82148647
2
Properties=species:S:1:pos:R:3:forces:R:3 energy=-0.6499632463500422 pbc="F F F"
Cs       0.00000000       0.00000000       0.00000000       0.00000000       0.00000000       0.78772539
Cs       0.00000000       0.00000000       5.64727273       0.00000000       0.00000000      -0.78772539
2
Properties=species:S:1:pos:R:3:forces:R:3 energy=-0.5970453956306122 pbc="F F F"
Cs       0.00000000       0.00000000       0.00000000       0.00000000       0.00000000       1.06155300
Cs       0.00000000       0.00000000       5.70606061       0.00000000       0.00000000      -1.06155300
2
Properties=species:S:1:pos:R:3:forces:R:3 energy=-0.5239131047713588 pbc="F F F"
Cs       0.00000000       0.00000000       0.00000000       0.00000000       0.00000000       1.37396669
Cs       0.00000000       0.00000000       5.76484848       0.00000000       0.00000000      -1.37396669
2
Properties=species:S:1:pos:R:3:forces:R:3 energy=-0.44564190393943137 pbc="F F F"
Cs       0.00000000       0.00000000       0.00000000       0.00000000       0.00000000       1.19471431
Cs       0.00000000       0.00000000       5.82363636       0.00000000       0.00000000      -1.19471431
2
Properties=species:S:1:pos:R:3:forces:R:3 energy=-0.3914237141873282 pbc="F F F"
Cs       0.00000000       0.00000000       0.00000000       0.00000000       0.00000000       0.63530272
Cs       0.00000000       0.00000000       5.88242424       0.00000000       0.00000000      -0.63530272
2
Properties=species:S:1:pos:R:3:forces:R:3 energy=-0.3694917412023933 pbc="F F F"
Cs       0.00000000       0.00000000       0.00000000       0.00000000       0.00000000       0.14576246
Cs       0.00000000       0.00000000       5.94121212       0.00000000       0.00000000      -0.14576246
2
Properties=species:S:1:pos:R:3:forces:R:3 energy=-0.3678941432751692 pbc="F F F"
Cs       0.00000000       0.00000000       0.00000000       0.00000000       0.00000000      -0.02732363
Cs       0.00000000       0.00000000       6.00000000       0.00000000       0.00000000       0.02732363
