2
Properties=species:S:1:pos:R:3:forces:R:3 energy=4104.052533274171 pbc="F F F"
Cu       0.00000000       0.00000000       0.00000000       0.00000000       0.00000000  -62461.25390625
Cu       0.00000000       0.00000000       0.18000000       0.00000000       0.00000000   62461.25390625
2
Properties=species:S:1:pos:R:3:forces:R:3 energy=1837.783246164796 pbc="F F F"
Cu       0.00000000       0.00000000       0.00000000       0.00000000       0.00000000  -22592.41601562
Cu       0.00000000       0.00000000       0.23878788       0.00000000       0.00000000   22592.41601562
2
Properties=species:S:1:pos:R:3:forces:R:3 energy=953.7830020273389 pbc="F F F"
Cu       0.00000000       0.00000000       0.00000000       0.00000000       0.00000000   -9626.35546875
Cu       0.00000000       0.00000000       0.29757576       0.00000000       0.00000000    9626.35546875
2
Properties=species:S:1:pos:R:3:forces:R:3 energy=557.9264956796826 pbc="F F F"
Cu       0.00000000       0.00000000       0.00000000       0.00000000       0.00000000   -4563.44775391
Cu       0.00000000       0.00000000       0.35636364       0.00000000       0.00000000    4563.44775391
2
Properties=species:S:1:pos:R:3:forces:R:3 energy=363.426678791487 pbc="F F F"
Cu       0.00000000       0.00000000       0.00000000       0.00000000       0.00000000   -2338.43066406
Cu       0.00000000       0.00000000       0.41515152       0.00000000       0.00000000    2338.43066406
2
Properties=species:S:1:pos:R:3:forces:R:3 energy=260.57771029829894 pbc="F F F"
Cu       0.00000000       0.00000000       0.00000000       0.00000000       0.00000000   -1286.15478516
Cu       0.00000000       0.00000000       0.47393939       0.00000000       0.00000000    1286.15478516
2
Properties=species:S:1:pos:R:3:forces:R:3 energy=201.9236728480556 pbc="F F F"
Cu       0.00000000       0.00000000       0.00000000       0.00000000       0.00000000    -769.37359619
Cu       0.00000000       0.00000000       0.53272727       0.00000000       0.00000000     769.37359619
2
Properties=species:S:1:pos:R:3:forces:R:3 energy=165.05369302767102 pbc="F F F"
Cu       0.00000000       0.00000000       0.00000000       0.00000000       0.00000000    -515.35278320
Cu       0.00000000       0.00000000       0.59151515       0.00000000       0.00000000     515.35278320
2
Properties=species:S:1:pos:R:3:forces:R:3 energy=138.74686936689434 pbc="F F F"
Cu       0.00000000       0.00000000       0.00000000       0.00000000       0.00000000    -395.08215332
Cu       0.00000000       0.00000000       0.65030303       0.00000000       0.00000000     395.08215332
2
Properties=species:S:1:pos:R:3:forces:R:3 energy=117.32290401416309 pbc="F F F"
Cu       0.00000000       0.00000000       0.00000000       0.00000000       0.00000000    -341.00659180
Cu       0.00000000       0.00000000       0.70909091       0.00000000       0.00000000     341.00659180
2
Properties=species:S:1:pos:R:3:forces:R:3 energy=98.07356793621406 pbc="F F F"
Cu       0.00000000       0.00000000       0.00000000       0.00000000       0.00000000    -316.32327271
Cu       0.00000000       0.00000000       0.76787879       0.00000000       0.00000000     316.32327271
2
Properties=species:S:1:pos:R:3:forces:R:3 energy=80.3410013371368 pbc="F F F"
Cu       0.00000000       0.00000000       0.00000000       0.00000000       0.00000000    -284.64721680
Cu       0.00000000       0.00000000       0.82666667       0.00000000       0.00000000     284.64721680
2
Properties=species:S:1:pos:R:3:forces:R:3 energy=64.38941018122674 pbc="F F F"
Cu       0.00000000       0.00000000       0.00000000       0.00000000       0.00000000    -259.78366089
Cu       0.00000000       0.00000000       0.88545455       0.00000000       0.00000000     259.78366089
2
Properties=species:S:1:pos:R:3:forces:R:3 energy=49.96992366005616 pbc="F F F"
Cu       0.00000000       0.00000000       0.00000000       0.00000000       0.00000000    -227.87399292
Cu       0.00000000       0.00000000       0.94424242       0.00000000       0.00000000     227.87399292
2
Properties=species:S:1:pos:R:3:forces:R:3 energy=37.890807488170644 pbc="F F F"
Cu       0.00000000       0.00000000       0.00000000       0.00000000       0.00000000    -180.67652893
Cu       0.00000000       0.00000000       1.00303030       0.00000000       0.00000000     180.67652893
2
Properties=species:S:1:pos:R:3:forces:R:3 energy=29.06060054728599 pbc="F F F"
Cu       0.00000000       0.00000000       0.00000000       0.00000000       0.00000000    -117.68801117
Cu       0.00000000       0.00000000       1.06181818       0.00000000       0.00000000     117.68801117
2
Properties=species:S:1:pos:R:3:forces:R:3 energy=23.903316025904743 pbc="F F F"
Cu       0.00000000       0.00000000       0.00000000       0.00000000       0.00000000     -61.48522568
Cu       0.00000000       0.00000000       1.12060606       0.00000000       0.00000000      61.48522568
2
Properties=species:S:1:pos:R:3:forces:R:3 energy=21.259999382861132 pbc="F F F"
Cu       0.00000000       0.00000000       0.00000000       0.00000000       0.00000000     -34.62061310
Cu       0.00000000       0.00000000       1.17939394       0.00000000       0.00000000      34.62061310
2
Properties=species:S:1:pos:R:3:forces:R:3 energy=19.190087501782056 pbc="F F F"
Cu       0.00000000       0.00000000       0.00000000       0.00000000       0.00000000     -39.19272995
Cu       0.00000000       0.00000000       1.23818182       0.00000000       0.00000000      39.19272995
2
Properties=species:S:1:pos:R:3:forces:R:3 energy=16.527227258329813 pbc="F F F"
Cu       0.00000000       0.00000000       0.00000000       0.00000000       0.00000000     -50.76267624
Cu       0.00000000       0.00000000       1.29696970       0.00000000       0.00000000      50.76267624
2
Properties=species:S:1:pos:R:3:forces:R:3 energy=13.375671588128228 pbc="F F F"
Cu       0.00000000       0.00000000       0.00000000       0.00000000       0.00000000     -54.95312119
Cu       0.00000000       0.00000000       1.35575758       0.00000000       0.00000000      54.95312119
2
Properties=species:S:1:pos:R:3:forces:R:3 energy=10.214527527302005 pbc="F F F"
Cu       0.00000000       0.00000000       0.00000000       0.00000000       0.00000000     -51.68302917
Cu       0.00000000       0.00000000       1.41454545       0.00000000       0.00000000      51.68302917
2
Properties=species:S:1:pos:R:3:forces:R:3 energy=7.3662034462238415 pbc="F F F"
Cu       0.00000000       0.00000000       0.00000000       0.00000000       0.00000000     -44.90771866
Cu       0.00000000       0.00000000       1.47333333       0.00000000       0.00000000      44.90771866
2
Properties=species:S:1:pos:R:3:forces:R:3 energy=4.95209128918001 pbc="F F F"
Cu       0.00000000       0.00000000       0.00000000       0.00000000       0.00000000     -37.19345474
Cu       0.00000000       0.00000000       1.53212121       0.00000000       0.00000000      37.19345474
2
Properties=species:S:1:pos:R:3:forces:R:3 energy=2.98620502615356 pbc="F F F"
Cu       0.00000000       0.00000000       0.00000000       0.00000000       0.00000000     -29.81576157
Cu       0.00000000       0.00000000       1.59090909       0.00000000       0.00000000      29.81576157
2
Properties=species:S:1:pos:R:3:forces:R:3 energy=1.4268230612285657 pbc="F F F"
Cu       0.00000000       0.00000000       0.00000000       0.00000000       0.00000000     -23.42016411
Cu       0.00000000       0.00000000       1.64969697       0.00000000       0.00000000      23.42016411
2
Properties=species:S:1:pos:R:3:forces:R:3 energy=0.2115527789682384 pbc="F F F"
Cu       0.00000000       0.00000000       0.00000000       0.00000000       0.00000000     -18.08819389
Cu       0.00000000       0.00000000       1.70848485       0.00000000       0.00000000      18.08819389
2
Properties=species:S:1:pos:R:3:forces:R:3 energy=-0.7171374515354856 pbc="F F F"
Cu       0.00000000       0.00000000       0.00000000       0.00000000       0.00000000     -13.63860703
Cu       0.00000000       0.00000000       1.76727273       0.00000000       0.00000000      13.63860703
2
Properties=species:S:1:pos:R:3:forces:R:3 energy=-1.4065618709971388 pbc="F F F"
Cu       0.00000000       0.00000000       0.00000000       0.00000000       0.00000000      -9.93467426
Cu       0.00000000       0.00000000       1.82606061       0.00000000       0.00000000       9.93467426
2
Properties=species:S:1:pos:R:3:forces:R:3 energy=-1.8988135084722149 pbc="F F F"
Cu       0.00000000       0.00000000       0.00000000       0.00000000       0.00000000      -6.92436075
Cu       0.00000000       0.00000000       1.88484848       0.00000000       0.00000000       6.92436075
2
Properties=species:S:1:pos:R:3:forces:R:3 energy=-2.233341163415431 pbc="F F F"
Cu       0.00000000       0.00000000       0.00000000       0.00000000       0.00000000      -4.55785131
Cu       0.00000000       0.00000000       1.94363636       0.00000000       0.00000000       4.55785131
2
Properties=species:S:1:pos:R:3:forces:R:3 energy=-2.445772065394808 pbc="F F F"
Cu       0.00000000       0.00000000       0.00000000       0.00000000       0.00000000      -2.75555420
Cu       0.00000000       0.00000000       2.00242424       0.00000000       0.00000000       2.75555420
2
Properties=species:S:1:pos:R:3:forces:R:3 energy=-2.5665687897117144 pbc="F F F"
Cu       0.00000000       0.00000000       0.00000000       0.00000000       0.00000000      -1.42505765
Cu       0.00000000       0.00000000       2.06121212       0.00000000       0.00000000       1.42505765
2
Properties=species:S:1:pos:R:3:forces:R:3 energy=-2.620830821787133 pbc="F F F"
Cu       0.00000000       0.00000000       0.00000000       0.00000000       0.00000000      -0.47794223
Cu       0.00000000       0.00000000       2.12000000       0.00000000       0.00000000       0.47794223
2
Properties=species:S:1:pos:R:3:forces:R:3 energy=-2.628694798439676 pbc="F F F"
Cu       0.00000000       0.00000000       0.00000000       0.00000000       0.00000000       0.16628011
Cu       0.00000000       0.00000000       2.17878788       0.00000000       0.00000000      -0.16628011
2
Properties=species:S:1:pos:R:3:forces:R:3 energy=-2.605769756185116 pbc="F F F"
Cu       0.00000000       0.00000000       0.00000000       0.00000000       0.00000000       0.58113921
Cu       0.00000000       0.00000000       2.23757576       0.00000000       0.00000000      -0.58113921
2
Properties=species:S:1:pos:R:3:forces:R:3 energy=-2.5635653351967083 pbc="F F F"
Cu       0.00000000       0.00000000       0.00000000       0.00000000       0.00000000       0.83233297
Cu       0.00000000       0.00000000       2.29636364       0.00000000       0.00000000      -0.83233297
2
Properties=species:S:1:pos:R:3:forces:R:3 energy=-2.5100282793459234 pbc="F F F"
Cu       0.00000000       0.00000000       0.00000000       0.00000000       0.00000000       0.97485226
Cu       0.00000000       0.00000000       2.35515152       0.00000000       0.00000000      -0.97485226
2
Properties=species:S:1:pos:R:3:forces:R:3 energy=-2.4502450897073422 pbc="F F F"
Cu       0.00000000       0.00000000       0.00000000       0.00000000       0.00000000       1.05067027
Cu       0.00000000       0.00000000       2.41393939       0.00000000       0.00000000      -1.05067027
2
Properties=species:S:1:pos:R:3:forces:R:3 energy=-2.3872312524563175 pbc="F F F"
Cu       0.00000000       0.00000000       0.00000000       0.00000000       0.00000000       1.08852255
Cu       0.00000000       0.00000000       2.47272727       0.00000000       0.00000000      -1.08852255
2
Properties=species:S:1:pos:R:3:forces:R:3 energy=-2.3226599095699902 pbc="F F F"
Cu       0.00000000       0.00000000       0.00000000       0.00000000       0.00000000       1.10574389
Cu       0.00000000       0.00000000       2.53151515       0.00000000       0.00000000      -1.10574389
2
Properties=species:S:1:pos:R:3:forces:R:3 energy=-2.2574290836368758 pbc="F F F"
Cu       0.00000000       0.00000000       0.00000000       0.00000000       0.00000000       1.11240184
Cu       0.00000000       0.00000000       2.59030303       0.00000000       0.00000000      -1.11240184
2
Properties=species:S:1:pos:R:3:forces:R:3 energy=-2.191878977216816 pbc="F F F"
Cu       0.00000000       0.00000000       0.00000000       0.00000000       0.00000000       1.11879671
Cu       0.00000000       0.00000000       2.64909091       0.00000000       0.00000000      -1.11879671
2
Properties=species:S:1:pos:R:3:forces:R:3 energy=-2.1255904568499595 pbc="F F F"
Cu       0.00000000       0.00000000       0.00000000       0.00000000       0.00000000       1.14000511
Cu       0.00000000       0.00000000       2.70787879       0.00000000       0.00000000      -1.14000511
2
Properties=species:S:1:pos:R:3:forces:R:3 energy=-2.0574084278073994 pbc="F F F"
Cu       0.00000000       0.00000000       0.00000000       0.00000000       0.00000000       1.18251908
Cu       0.00000000       0.00000000       2.76666667       0.00000000       0.00000000      -1.18251908
2
Properties=species:S:1:pos:R:3:forces:R:3 energy=-1.9863910772483968 pbc="F F F"
Cu       0.00000000       0.00000000       0.00000000       0.00000000       0.00000000       1.23332000
Cu       0.00000000       0.00000000       2.82545455       0.00000000       0.00000000      -1.23332000
2
Properties=species:S:1:pos:R:3:forces:R:3 energy=-1.9125752877715867 pbc="F F F"
Cu       0.00000000       0.00000000       0.00000000       0.00000000       0.00000000       1.27553654
Cu       0.00000000       0.00000000       2.88424242       0.00000000       0.00000000      -1.27553654
2
Properties=species:S:1:pos:R:3:forces:R:3 energy=-1.8367577999380653 pbc="F F F"
Cu       0.00000000       0.00000000       0.00000000       0.00000000       0.00000000       1.30072260
Cu       0.00000000       0.00000000       2.94303030       0.00000000       0.00000000      -1.30072260
2
Properties=species:S:1:pos:R:3:forces:R:3 energy=-1.7600026012246879 pbc="F F F"
Cu       0.00000000       0.00000000       0.00000000       0.00000000       0.00000000       1.30763853
Cu       0.00000000       0.00000000       3.00181818       0.00000000       0.00000000      -1.30763853
2
Properties=species:S:1:pos:R:3:forces:R:3 energy=-1.6833132242270943 pbc="F F F"
Cu       0.00000000       0.00000000       0.00000000       0.00000000       0.00000000       1.29915214
Cu       0.00000000       0.00000000       3.06060606       0.00000000       0.00000000      -1.29915214
2
Properties=species:S:1:pos:R:3:forces:R:3 energy=-1.607462182693357 pbc="F F F"
Cu       0.00000000       0.00000000       0.00000000       0.00000000       0.00000000       1.28001249
Cu       0.00000000       0.00000000       3.11939394       0.00000000       0.00000000      -1.28001249
2
Properties=species:S:1:pos:R:3:forces:R:3 energy=-1.5329324171283327 pbc="F F F"
Cu       0.00000000       0.00000000       0.00000000       0.00000000       0.00000000       1.25480473
Cu       0.00000000       0.00000000       3.17818182       0.00000000       0.00000000      -1.25480473
2
Properties=species:S:1:pos:R:3:forces:R:3 energy=-1.459988255490443 pbc="F F F"
Cu       0.00000000       0.00000000       0.00000000       0.00000000       0.00000000       1.22641754
Cu       0.00000000       0.00000000       3.23696970       0.00000000       0.00000000      -1.22641754
2
Properties=species:S:1:pos:R:3:forces:R:3 energy=-1.3887823080084114 pbc="F F F"
Cu       0.00000000       0.00000000       0.00000000       0.00000000       0.00000000       1.19562912
Cu       0.00000000       0.00000000       3.29575758       0.00000000       0.00000000      -1.19562912
2
Properties=species:S:1:pos:R:3:forces:R:3 energy=-1.319472974247705 pbc="F F F"
Cu       0.00000000       0.00000000       0.00000000       0.00000000       0.00000000       1.16168857
Cu       0.00000000       0.00000000       3.35454545       0.00000000       0.00000000      -1.16168857
2
Properties=species:S:1:pos:R:3:forces:R:3 energy=-1.2522827761634967 pbc="F F F"
Cu       0.00000000       0.00000000       0.00000000       0.00000000       0.00000000       1.12333894
Cu       0.00000000       0.00000000       3.41333333       0.00000000       0.00000000      -1.12333894
2
Properties=species:S:1:pos:R:3:forces:R:3 energy=-1.1874999870333158 pbc="F F F"
Cu       0.00000000       0.00000000       0.00000000       0.00000000       0.00000000       1.07967675
Cu       0.00000000       0.00000000       3.47212121       0.00000000       0.00000000      -1.07967675
2
Properties=species:S:1:pos:R:3:forces:R:3 energy=-1.12544607799372 pbc="F F F"
Cu       0.00000000       0.00000000       0.00000000       0.00000000       0.00000000       1.03057158
Cu       0.00000000       0.00000000       3.53090909       0.00000000       0.00000000      -1.03057158
2
Properties=species:S:1:pos:R:3:forces:R:3 energy=-1.0664231569191371 pbc="F F F"
Cu       0.00000000       0.00000000       0.00000000       0.00000000       0.00000000       0.97668380
Cu       0.00000000       0.00000000       3.58969697       0.00000000       0.00000000      -0.97668380
2
Properties=species:S:1:pos:R:3:forces:R:3 energy=-1.010680301389125 pbc="F F F"
Cu       0.00000000       0.00000000       0.00000000       0.00000000       0.00000000       0.91925895
Cu       0.00000000       0.00000000       3.64848485       0.00000000       0.00000000      -0.91925895
2
Properties=species:S:1:pos:R:3:forces:R:3 energy=-0.958380015112605 pbc="F F F"
Cu       0.00000000       0.00000000       0.00000000       0.00000000       0.00000000       0.85984641
Cu       0.00000000       0.00000000       3.70727273       0.00000000       0.00000000      -0.85984641
2
Properties=species:S:1:pos:R:3:forces:R:3 energy=-0.9095909178993906 pbc="F F F"
Cu       0.00000000       0.00000000       0.00000000       0.00000000       0.00000000       0.80003178
Cu       0.00000000       0.00000000       3.76606061       0.00000000       0.00000000      -0.80003178
2
Properties=species:S:1:pos:R:3:forces:R:3 energy=-0.8642956120574046 pbc="F F F"
Cu       0.00000000       0.00000000       0.00000000       0.00000000       0.00000000       0.74123502
Cu       0.00000000       0.00000000       3.82484848       0.00000000       0.00000000      -0.74123502
2
Properties=species:S:1:pos:R:3:forces:R:3 energy=-0.8223991234935051 pbc="F F F"
Cu       0.00000000       0.00000000       0.00000000       0.00000000       0.00000000       0.68450117
Cu       0.00000000       0.00000000       3.88363636       0.00000000       0.00000000      -0.68450117
2
Properties=species:S:1:pos:R:3:forces:R:3 energy=-0.783762334751513 pbc="F F F"
Cu       0.00000000       0.00000000       0.00000000       0.00000000       0.00000000       0.63042170
Cu       0.00000000       0.00000000       3.94242424       0.00000000       0.00000000      -0.63042170
2
Properties=species:S:1:pos:R:3:forces:R:3 energy=-0.7482232195208868 pbc="F F F"
Cu       0.00000000       0.00000000       0.00000000       0.00000000       0.00000000       0.57909560
Cu       0.00000000       0.00000000       4.00121212       0.00000000       0.00000000      -0.57909560
2
Properties=species:S:1:pos:R:3:forces:R:3 energy=-0.7156267693360912 pbc="F F F"
Cu       0.00000000       0.00000000       0.00000000       0.00000000       0.00000000       0.53021419
Cu       0.00000000       0.00000000       4.06000000       0.00000000       0.00000000      -0.53021419
2
Properties=species:S:1:pos:R:3:forces:R:3 energy=-0.6858454595605353 pbc="F F F"
Cu       0.00000000       0.00000000       0.00000000       0.00000000       0.00000000       0.48323324
Cu       0.00000000       0.00000000       4.11878788       0.00000000       0.00000000      -0.48323324
2
Properties=species:S:1:pos:R:3:forces:R:3 energy=-0.6587845092664706 pbc="F F F"
Cu       0.00000000       0.00000000       0.00000000       0.00000000       0.00000000       0.43756774
Cu       0.00000000       0.00000000       4.17757576       0.00000000       0.00000000      -0.43756774
2
Properties=species:S:1:pos:R:3:forces:R:3 energy=-0.6343799378723629 pbc="F F F"
Cu       0.00000000       0.00000000       0.00000000       0.00000000       0.00000000       0.39281216
Cu       0.00000000       0.00000000       4.23636364       0.00000000       0.00000000      -0.39281216
2
Properties=species:S:1:pos:R:3:forces:R:3 energy=-0.6125826279440059 pbc="F F F"
Cu       0.00000000       0.00000000       0.00000000       0.00000000       0.00000000       0.34888718
Cu       0.00000000       0.00000000       4.29515152       0.00000000       0.00000000      -0.34888718
2
Properties=species:S:1:pos:R:3:forces:R:3 energy=-0.5933372182306507 pbc="F F F"
Cu       0.00000000       0.00000000       0.00000000       0.00000000       0.00000000       0.30612051
Cu       0.00000000       0.00000000       4.35393939       0.00000000       0.00000000      -0.30612051
2
Properties=species:S:1:pos:R:3:forces:R:3 energy=-0.5765552839906857 pbc="F F F"
Cu       0.00000000       0.00000000       0.00000000       0.00000000       0.00000000       0.26518565
Cu       0.00000000       0.00000000       4.41272727       0.00000000       0.00000000      -0.26518565
2
Properties=species:S:1:pos:R:3:forces:R:3 energy=-0.562104110727575 pbc="F F F"
Cu       0.00000000       0.00000000       0.00000000       0.00000000       0.00000000       0.22697440
Cu       0.00000000       0.00000000       4.47151515       0.00000000       0.00000000      -0.22697440
2
Properties=species:S:1:pos:R:3:forces:R:3 energy=-0.5497977138953654 pbc="F F F"
Cu       0.00000000       0.00000000       0.00000000       0.00000000       0.00000000       0.19235271
Cu       0.00000000       0.00000000       4.53030303       0.00000000       0.00000000      -0.19235271
2
Properties=species:S:1:pos:R:3:forces:R:3 energy=-0.5394056402112277 pbc="F F F"
Cu       0.00000000       0.00000000       0.00000000       0.00000000       0.00000000       0.16192955
Cu       0.00000000       0.00000000       4.58909091       0.00000000       0.00000000      -0.16192955
2
Properties=species:S:1:pos:R:3:forces:R:3 energy=-0.5306730791793477 pbc="F F F"
Cu       0.00000000       0.00000000       0.00000000       0.00000000       0.00000000       0.13587497
Cu       0.00000000       0.00000000       4.64787879       0.00000000       0.00000000      -0.13587497
2
Properties=species:S:1:pos:R:3:forces:R:3 energy=-0.5233499006403739 pbc="F F F"
Cu       0.00000000       0.00000000       0.00000000       0.00000000       0.00000000       0.11388320
Cu       0.00000000       0.00000000       4.70666667       0.00000000       0.00000000      -0.11388320
2
Properties=species:S:1:pos:R:3:forces:R:3 energy=-0.517216344497287 pbc="F F F"
Cu       0.00000000       0.00000000       0.00000000       0.00000000       0.00000000       0.09528761
Cu       0.00000000       0.00000000       4.76545455       0.00000000       0.00000000      -0.09528761
2
Properties=species:S:1:pos:R:3:forces:R:3 energy=-0.5120954056862533 pbc="F F F"
Cu       0.00000000       0.00000000       0.00000000       0.00000000       0.00000000       0.07929875
Cu       0.00000000       0.00000000       4.82424242       0.00000000       0.00000000      -0.07929875
2
Properties=species:S:1:pos:R:3:forces:R:3 energy=-0.5078541388511777 pbc="F F F"
Cu       0.00000000       0.00000000       0.00000000       0.00000000       0.00000000       0.06530879
Cu       0.00000000       0.00000000       4.88303030       0.00000000       0.00000000      -0.06530879
2
Properties=species:S:1:pos:R:3:forces:R:3 energy=-0.5043823296763282 pbc="F F F"
Cu       0.00000000       0.00000000       0.00000000       0.00000000       0.00000000       0.05309526
Cu       0.00000000       0.00000000       4.94181818       0.00000000       0.00000000      -0.05309526
2
Properties=species:S:1:pos:R:3:forces:R:3 energy=-0.5015720539529889 pbc="F F F"
Cu       0.00000000       0.00000000       0.00000000       0.00000000       0.00000000       0.04287473
Cu       0.00000000       0.00000000       5.00060606       0.00000000       0.00000000      -0.04287473
2
Properties=species:S:1:pos:R:3:forces:R:3 energy=-0.49929316856711975 pbc="F F F"
Cu       0.00000000       0.00000000       0.00000000       0.00000000       0.00000000       0.03509951
Cu       0.00000000       0.00000000       5.05939394       0.00000000       0.00000000      -0.03509951
2
Properties=species:S:1:pos:R:3:forces:R:3 energy=-0.4973898886920278 pbc="F F F"
Cu       0.00000000       0.00000000       0.00000000       0.00000000       0.00000000       0.03012647
Cu       0.00000000       0.00000000       5.11818182       0.00000000       0.00000000      -0.03012647
2
Properties=species:S:1:pos:R:3:forces:R:3 energy=-0.49569758767069155 pbc="F F F"
Cu       0.00000000       0.00000000       0.00000000       0.00000000       0.00000000       0.02786722
Cu       0.00000000       0.00000000       5.17696970       0.00000000       0.00000000      -0.02786722
2
Properties=species:S:1:pos:R:3:forces:R:3 energy=-0.49407338270206175 pbc="F F F"
Cu       0.00000000       0.00000000       0.00000000       0.00000000       0.00000000       0.02764782
Cu       0.00000000       0.00000000       5.23575758       0.00000000       0.00000000      -0.02764782
2
Properties=species:S:1:pos:R:3:forces:R:3 energy=-0.4924271506391443 pbc="F F F"
Cu       0.00000000       0.00000000       0.00000000       0.00000000       0.00000000       0.02845155
Cu       0.00000000       0.00000000       5.29454545       0.00000000       0.00000000      -0.02845155
2
Properties=species:S:1:pos:R:3:forces:R:3 energy=-0.49072170976277724 pbc="F F F"
Cu       0.00000000       0.00000000       0.00000000       0.00000000       0.00000000       0.02961849
Cu       0.00000000       0.00000000       5.35333333       0.00000000       0.00000000      -0.02961849
2
Properties=species:S:1:pos:R:3:forces:R:3 energy=-0.48893486429419736 pbc="F F F"
Cu       0.00000000       0.00000000       0.00000000       0.00000000       0.00000000       0.03124219
Cu       0.00000000       0.00000000       5.41212121       0.00000000       0.00000000      -0.03124219
2
Properties=species:S:1:pos:R:3:forces:R:3 energy=-0.48706066934784525 pbc="F F F"
Cu       0.00000000       0.00000000       0.00000000       0.00000000       0.00000000       0.03208300
Cu       0.00000000       0.00000000       5.47090909       0.00000000       0.00000000      -0.03208300
2
Properties=species:S:1:pos:R:3:forces:R:3 energy=-0.4852644634043813 pbc="F F F"
Cu       0.00000000       0.00000000       0.00000000       0.00000000       0.00000000       0.02786012
Cu       0.00000000       0.00000000       5.52969697       0.00000000       0.00000000      -0.02786012
2
Properties=species:S:1:pos:R:3:forces:R:3 energy=-0.48390542500094386 pbc="F F F"
Cu       0.00000000       0.00000000       0.00000000       0.00000000       0.00000000       0.01779369
Cu       0.00000000       0.00000000       5.58848485       0.00000000       0.00000000      -0.01779369
2
Properties=species:S:1:pos:R:3:forces:R:3 energy=-0.4831617236639104 pbc="F F F"
Cu       0.00000000       0.00000000       0.00000000       0.00000000       0.00000000       0.00824698
Cu       0.00000000       0.00000000       5.64727273       0.00000000       0.00000000      -0.00824698
2
Properties=species:S:1:pos:R:3:forces:R:3 energy=-0.48280237254360975 pbc="F F F"
Cu       0.00000000       0.00000000       0.00000000       0.00000000       0.00000000       0.00523664
Cu       0.00000000       0.00000000       5.70606061       0.00000000       0.00000000      -0.00523664
2
Properties=species:S:1:pos:R:3:forces:R:3 energy=-0.4824340454966685 pbc="F F F"
Cu       0.00000000       0.00000000       0.00000000       0.00000000       0.00000000       0.00772767
Cu       0.00000000       0.00000000       5.76484848       0.00000000       0.00000000      -0.00772767
2
Properties=species:S:1:pos:R:3:forces:R:3 energy=-0.48190917850144344 pbc="F F F"
Cu       0.00000000       0.00000000       0.00000000       0.00000000       0.00000000       0.00963563
Cu       0.00000000       0.00000000       5.82363636       0.00000000       0.00000000      -0.00963563
2
Properties=species:S:1:pos:R:3:forces:R:3 energy=-0.48136263335017 pbc="F F F"
Cu       0.00000000       0.00000000       0.00000000       0.00000000       0.00000000       0.00860221
Cu       0.00000000       0.00000000       5.88242424       0.00000000       0.00000000      -0.00860221
2
Properties=species:S:1:pos:R:3:forces:R:3 energy=-0.4809148707697465 pbc="F F F"
Cu       0.00000000       0.00000000       0.00000000       0.00000000       0.00000000       0.00665640
Cu       0.00000000       0.00000000       5.94121212       0.00000000       0.00000000      -0.00665640
2
Properties=species:S:1:pos:R:3:forces:R:3 energy=-0.48056120499174154 pbc="F F F"
Cu       0.00000000       0.00000000       0.00000000       0.00000000       0.00000000       0.00560382
Cu       0.00000000       0.00000000       6.00000000       0.00000000       0.00000000      -0.00560382
