2
Properties=species:S:1:pos:R:3:forces:R:3 energy=12645.72085688027 pbc="F F F"
Dy       0.00000000       0.00000000       0.00000000       0.00000000       0.00000000 -219071.64062500
Dy       0.00000000       0.00000000       0.18000000       0.00000000       0.00000000  219071.64062500
2
Properties=species:S:1:pos:R:3:forces:R:3 energy=4955.226227974021 pbc="F F F"
Dy       0.00000000       0.00000000       0.00000000       0.00000000       0.00000000  -73249.13281250
Dy       0.00000000       0.00000000       0.23878788       0.00000000       0.00000000   73249.13281250
2
Properties=species:S:1:pos:R:3:forces:R:3 energy=2183.2450268021457 pbc="F F F"
Dy       0.00000000       0.00000000       0.00000000       0.00000000       0.00000000  -28831.27929688
Dy       0.00000000       0.00000000       0.29757576       0.00000000       0.00000000   28831.27929688
2
Properties=species:S:1:pos:R:3:forces:R:3 energy=1040.0491039632545 pbc="F F F"
Dy       0.00000000       0.00000000       0.00000000       0.00000000       0.00000000  -12556.54785156
Dy       0.00000000       0.00000000       0.35636364       0.00000000       0.00000000   12556.54785156
2
Properties=species:S:1:pos:R:3:forces:R:3 energy=525.5466625570045 pbc="F F F"
Dy       0.00000000       0.00000000       0.00000000       0.00000000       0.00000000   -5876.18701172
Dy       0.00000000       0.00000000       0.41515152       0.00000000       0.00000000    5876.18701172
2
Properties=species:S:1:pos:R:3:forces:R:3 energy=278.37143063608215 pbc="F F F"
Dy       0.00000000       0.00000000       0.00000000       0.00000000       0.00000000   -2913.61474609
Dy       0.00000000       0.00000000       0.47393939       0.00000000       0.00000000    2913.61474609
2
Properties=species:S:1:pos:R:3:forces:R:3 energy=152.9918377532456 pbc="F F F"
Dy       0.00000000       0.00000000       0.00000000       0.00000000       0.00000000   -1518.93664551
Dy       0.00000000       0.00000000       0.53272727       0.00000000       0.00000000    1518.93664551
2
Properties=species:S:1:pos:R:3:forces:R:3 energy=86.27990846997041 pbc="F F F"
Dy       0.00000000       0.00000000       0.00000000       0.00000000       0.00000000    -828.03643799
Dy       0.00000000       0.00000000       0.59151515       0.00000000       0.00000000     828.03643799
2
Properties=species:S:1:pos:R:3:forces:R:3 energy=49.23895393081181 pbc="F F F"
Dy       0.00000000       0.00000000       0.00000000       0.00000000       0.00000000    -469.70809937
Dy       0.00000000       0.00000000       0.65030303       0.00000000       0.00000000     469.70809937
2
Properties=species:S:1:pos:R:3:forces:R:3 energy=27.8825811609163 pbc="F F F"
Dy       0.00000000       0.00000000       0.00000000       0.00000000       0.00000000    -275.91705322
Dy       0.00000000       0.00000000       0.70909091       0.00000000       0.00000000     275.91705322
2
Properties=species:S:1:pos:R:3:forces:R:3 energy=15.157991927118541 pbc="F F F"
Dy       0.00000000       0.00000000       0.00000000       0.00000000       0.00000000    -167.05273438
Dy       0.00000000       0.00000000       0.76787879       0.00000000       0.00000000     167.05273438
2
Properties=species:S:1:pos:R:3:forces:R:3 energy=7.359839168261308 pbc="F F F"
Dy       0.00000000       0.00000000       0.00000000       0.00000000       0.00000000    -103.76224518
Dy       0.00000000       0.00000000       0.82666667       0.00000000       0.00000000     103.76224518
2
Properties=species:S:1:pos:R:3:forces:R:3 energy=2.4678640315263376 pbc="F F F"
Dy       0.00000000       0.00000000       0.00000000       0.00000000       0.00000000     -65.78368378
Dy       0.00000000       0.00000000       0.88545455       0.00000000       0.00000000      65.78368378
2
Properties=species:S:1:pos:R:3:forces:R:3 energy=-0.6554915044986748 pbc="F F F"
Dy       0.00000000       0.00000000       0.00000000       0.00000000       0.00000000     -42.28765488
Dy       0.00000000       0.00000000       0.94424242       0.00000000       0.00000000      42.28765488
2
Properties=species:S:1:pos:R:3:forces:R:3 energy=-2.6700812863564076 pbc="F F F"
Dy       0.00000000       0.00000000       0.00000000       0.00000000       0.00000000     -27.34653091
Dy       0.00000000       0.00000000       1.00303030       0.00000000       0.00000000      27.34653091
2
Properties=species:S:1:pos:R:3:forces:R:3 energy=-3.9744439035243997 pbc="F F F"
Dy       0.00000000       0.00000000       0.00000000       0.00000000       0.00000000     -17.74394608
Dy       0.00000000       0.00000000       1.06181818       0.00000000       0.00000000      17.74394608
2
Properties=species:S:1:pos:R:3:forces:R:3 energy=-4.826603044178581 pbc="F F F"
Dy       0.00000000       0.00000000       0.00000000       0.00000000       0.00000000     -11.74509335
Dy       0.00000000       0.00000000       1.12060606       0.00000000       0.00000000      11.74509335
2
Properties=species:S:1:pos:R:3:forces:R:3 energy=-5.403509563840292 pbc="F F F"
Dy       0.00000000       0.00000000       0.00000000       0.00000000       0.00000000      -8.20490074
Dy       0.00000000       0.00000000       1.17939394       0.00000000       0.00000000       8.20490074
2
Properties=species:S:1:pos:R:3:forces:R:3 energy=-5.8204636030235 pbc="F F F"
Dy       0.00000000       0.00000000       0.00000000       0.00000000       0.00000000      -6.16541338
Dy       0.00000000       0.00000000       1.23818182       0.00000000       0.00000000       6.16541338
2
Properties=species:S:1:pos:R:3:forces:R:3 energy=-6.1445422329107755 pbc="F F F"
Dy       0.00000000       0.00000000       0.00000000       0.00000000       0.00000000      -4.95469427
Dy       0.00000000       0.00000000       1.29696970       0.00000000       0.00000000       4.95469427
2
Properties=species:S:1:pos:R:3:forces:R:3 energy=-6.410776231973068 pbc="F F F"
Dy       0.00000000       0.00000000       0.00000000       0.00000000       0.00000000      -4.15537357
Dy       0.00000000       0.00000000       1.35575758       0.00000000       0.00000000       4.15537357
2
Properties=species:S:1:pos:R:3:forces:R:3 energy=-6.640589290178401 pbc="F F F"
Dy       0.00000000       0.00000000       0.00000000       0.00000000       0.00000000      -3.74848199
Dy       0.00000000       0.00000000       1.41454545       0.00000000       0.00000000       3.74848199
2
Properties=species:S:1:pos:R:3:forces:R:3 energy=-6.864203245243378 pbc="F F F"
Dy       0.00000000       0.00000000       0.00000000       0.00000000       0.00000000      -3.97843456
Dy       0.00000000       0.00000000       1.47333333       0.00000000       0.00000000       3.97843456
2
Properties=species:S:1:pos:R:3:forces:R:3 energy=-7.120262258924793 pbc="F F F"
Dy       0.00000000       0.00000000       0.00000000       0.00000000       0.00000000      -4.78983593
Dy       0.00000000       0.00000000       1.53212121       0.00000000       0.00000000       4.78983593
2
Properties=species:S:1:pos:R:3:forces:R:3 energy=-7.424252921733881 pbc="F F F"
Dy       0.00000000       0.00000000       0.00000000       0.00000000       0.00000000      -5.42900848
Dy       0.00000000       0.00000000       1.59090909       0.00000000       0.00000000       5.42900848
2
Properties=species:S:1:pos:R:3:forces:R:3 energy=-7.737349054831783 pbc="F F F"
Dy       0.00000000       0.00000000       0.00000000       0.00000000       0.00000000      -5.05416298
Dy       0.00000000       0.00000000       1.64969697       0.00000000       0.00000000       5.05416298
2
Properties=species:S:1:pos:R:3:forces:R:3 energy=-8.011077097323582 pbc="F F F"
Dy       0.00000000       0.00000000       0.00000000       0.00000000       0.00000000      -4.30620241
Dy       0.00000000       0.00000000       1.70848485       0.00000000       0.00000000       4.30620241
2
Properties=species:S:1:pos:R:3:forces:R:3 energy=-8.25446528122208 pbc="F F F"
Dy       0.00000000       0.00000000       0.00000000       0.00000000       0.00000000      -4.06067610
Dy       0.00000000       0.00000000       1.76727273       0.00000000       0.00000000       4.06067610
2
Properties=species:S:1:pos:R:3:forces:R:3 energy=-8.49453853786596 pbc="F F F"
Dy       0.00000000       0.00000000       0.00000000       0.00000000       0.00000000      -4.12569046
Dy       0.00000000       0.00000000       1.82606061       0.00000000       0.00000000       4.12569046
2
Properties=species:S:1:pos:R:3:forces:R:3 energy=-8.739815786497907 pbc="F F F"
Dy       0.00000000       0.00000000       0.00000000       0.00000000       0.00000000      -4.21495199
Dy       0.00000000       0.00000000       1.88484848       0.00000000       0.00000000       4.21495199
2
Properties=species:S:1:pos:R:3:forces:R:3 energy=-8.990123116267544 pbc="F F F"
Dy       0.00000000       0.00000000       0.00000000       0.00000000       0.00000000      -4.30691671
Dy       0.00000000       0.00000000       1.94363636       0.00000000       0.00000000       4.30691671
2
Properties=species:S:1:pos:R:3:forces:R:3 energy=-9.247372289383183 pbc="F F F"
Dy       0.00000000       0.00000000       0.00000000       0.00000000       0.00000000      -4.45454931
Dy       0.00000000       0.00000000       2.00242424       0.00000000       0.00000000       4.45454931
2
Properties=species:S:1:pos:R:3:forces:R:3 energy=-9.514264685044546 pbc="F F F"
Dy       0.00000000       0.00000000       0.00000000       0.00000000       0.00000000      -4.61947536
Dy       0.00000000       0.00000000       2.06121212       0.00000000       0.00000000       4.61947536
2
Properties=species:S:1:pos:R:3:forces:R:3 energy=-9.788593985720107 pbc="F F F"
Dy       0.00000000       0.00000000       0.00000000       0.00000000       0.00000000      -4.68758583
Dy       0.00000000       0.00000000       2.12000000       0.00000000       0.00000000       4.68758583
2
Properties=species:S:1:pos:R:3:forces:R:3 energy=-10.061664107483908 pbc="F F F"
Dy       0.00000000       0.00000000       0.00000000       0.00000000       0.00000000      -4.56747055
Dy       0.00000000       0.00000000       2.17878788       0.00000000       0.00000000       4.56747055
2
Properties=species:S:1:pos:R:3:forces:R:3 energy=-10.321673752150618 pbc="F F F"
Dy       0.00000000       0.00000000       0.00000000       0.00000000       0.00000000      -4.24842453
Dy       0.00000000       0.00000000       2.23757576       0.00000000       0.00000000       4.24842453
2
Properties=species:S:1:pos:R:3:forces:R:3 energy=-10.558384605040473 pbc="F F F"
Dy       0.00000000       0.00000000       0.00000000       0.00000000       0.00000000      -3.78752661
Dy       0.00000000       0.00000000       2.29636364       0.00000000       0.00000000       3.78752661
2
Properties=species:S:1:pos:R:3:forces:R:3 energy=-10.76573160493973 pbc="F F F"
Dy       0.00000000       0.00000000       0.00000000       0.00000000       0.00000000      -3.26158142
Dy       0.00000000       0.00000000       2.35515152       0.00000000       0.00000000       3.26158142
2
Properties=species:S:1:pos:R:3:forces:R:3 energy=-10.941826708112767 pbc="F F F"
Dy       0.00000000       0.00000000       0.00000000       0.00000000       0.00000000      -2.73276043
Dy       0.00000000       0.00000000       2.41393939       0.00000000       0.00000000       2.73276043
2
Properties=species:S:1:pos:R:3:forces:R:3 energy=-11.087796359310401 pbc="F F F"
Dy       0.00000000       0.00000000       0.00000000       0.00000000       0.00000000      -2.24210835
Dy       0.00000000       0.00000000       2.47272727       0.00000000       0.00000000       2.24210835
2
Properties=species:S:1:pos:R:3:forces:R:3 energy=-11.206687665342814 pbc="F F F"
Dy       0.00000000       0.00000000       0.00000000       0.00000000       0.00000000      -1.81450856
Dy       0.00000000       0.00000000       2.53151515       0.00000000       0.00000000       1.81450856
2
Properties=species:S:1:pos:R:3:forces:R:3 energy=-11.302609974153208 pbc="F F F"
Dy       0.00000000       0.00000000       0.00000000       0.00000000       0.00000000      -1.46157134
Dy       0.00000000       0.00000000       2.59030303       0.00000000       0.00000000       1.46157134
2
Properties=species:S:1:pos:R:3:forces:R:3 energy=-11.380007348027268 pbc="F F F"
Dy       0.00000000       0.00000000       0.00000000       0.00000000       0.00000000      -1.18362999
Dy       0.00000000       0.00000000       2.64909091       0.00000000       0.00000000       1.18362999
2
Properties=species:S:1:pos:R:3:forces:R:3 energy=-11.443119712261808 pbc="F F F"
Dy       0.00000000       0.00000000       0.00000000       0.00000000       0.00000000      -0.97420025
Dy       0.00000000       0.00000000       2.70787879       0.00000000       0.00000000       0.97420025
2
Properties=species:S:1:pos:R:3:forces:R:3 energy=-11.495713804965956 pbc="F F F"
Dy       0.00000000       0.00000000       0.00000000       0.00000000       0.00000000      -0.82412976
Dy       0.00000000       0.00000000       2.76666667       0.00000000       0.00000000       0.82412976
2
Properties=species:S:1:pos:R:3:forces:R:3 energy=-11.54096598916183 pbc="F F F"
Dy       0.00000000       0.00000000       0.00000000       0.00000000       0.00000000      -0.72238201
Dy       0.00000000       0.00000000       2.82545455       0.00000000       0.00000000       0.72238201
2
Properties=species:S:1:pos:R:3:forces:R:3 energy=-11.581323919323506 pbc="F F F"
Dy       0.00000000       0.00000000       0.00000000       0.00000000       0.00000000      -0.65504235
Dy       0.00000000       0.00000000       2.88424242       0.00000000       0.00000000       0.65504235
2
Properties=species:S:1:pos:R:3:forces:R:3 energy=-11.618335770317934 pbc="F F F"
Dy       0.00000000       0.00000000       0.00000000       0.00000000       0.00000000      -0.60569769
Dy       0.00000000       0.00000000       2.94303030       0.00000000       0.00000000       0.60569769
2
Properties=species:S:1:pos:R:3:forces:R:3 energy=-11.652571323191166 pbc="F F F"
Dy       0.00000000       0.00000000       0.00000000       0.00000000       0.00000000      -0.55809397
Dy       0.00000000       0.00000000       3.00181818       0.00000000       0.00000000       0.55809397
2
Properties=species:S:1:pos:R:3:forces:R:3 energy=-11.683734055242587 pbc="F F F"
Dy       0.00000000       0.00000000       0.00000000       0.00000000       0.00000000      -0.49943650
Dy       0.00000000       0.00000000       3.06060606       0.00000000       0.00000000       0.49943650
2
Properties=species:S:1:pos:R:3:forces:R:3 energy=-11.710926730322553 pbc="F F F"
Dy       0.00000000       0.00000000       0.00000000       0.00000000       0.00000000      -0.42225754
Dy       0.00000000       0.00000000       3.11939394       0.00000000       0.00000000       0.42225754
2
Properties=species:S:1:pos:R:3:forces:R:3 energy=-11.732969659957016 pbc="F F F"
Dy       0.00000000       0.00000000       0.00000000       0.00000000       0.00000000      -0.32419828
Dy       0.00000000       0.00000000       3.17818182       0.00000000       0.00000000       0.32419828
2
Properties=species:S:1:pos:R:3:forces:R:3 energy=-11.748661043764605 pbc="F F F"
Dy       0.00000000       0.00000000       0.00000000       0.00000000       0.00000000      -0.20662552
Dy       0.00000000       0.00000000       3.23696970       0.00000000       0.00000000       0.20662552
2
Properties=species:S:1:pos:R:3:forces:R:3 energy=-11.75695534456767 pbc="F F F"
Dy       0.00000000       0.00000000       0.00000000       0.00000000       0.00000000      -0.07335723
Dy       0.00000000       0.00000000       3.29575758       0.00000000       0.00000000       0.07335723
2
Properties=species:S:1:pos:R:3:forces:R:3 energy=-11.757087354752427 pbc="F F F"
Dy       0.00000000       0.00000000       0.00000000       0.00000000       0.00000000       0.06994998
Dy       0.00000000       0.00000000       3.35454545       0.00000000       0.00000000      -0.06994998
2
Properties=species:S:1:pos:R:3:forces:R:3 energy=-11.74867891909338 pbc="F F F"
Dy       0.00000000       0.00000000       0.00000000       0.00000000       0.00000000       0.21585733
Dy       0.00000000       0.00000000       3.41333333       0.00000000       0.00000000      -0.21585733
2
Properties=species:S:1:pos:R:3:forces:R:3 energy=-11.731839108570405 pbc="F F F"
Dy       0.00000000       0.00000000       0.00000000       0.00000000       0.00000000       0.35502478
Dy       0.00000000       0.00000000       3.47212121       0.00000000       0.00000000      -0.35502478
2
Properties=species:S:1:pos:R:3:forces:R:3 energy=-11.707285337006944 pbc="F F F"
Dy       0.00000000       0.00000000       0.00000000       0.00000000       0.00000000       0.47636914
Dy       0.00000000       0.00000000       3.53090909       0.00000000       0.00000000      -0.47636914
2
Properties=species:S:1:pos:R:3:forces:R:3 energy=-11.676412076305922 pbc="F F F"
Dy       0.00000000       0.00000000       0.00000000       0.00000000       0.00000000       0.56805706
Dy       0.00000000       0.00000000       3.58969697       0.00000000       0.00000000      -0.56805706
2
Properties=species:S:1:pos:R:3:forces:R:3 energy=-11.641285159746447 pbc="F F F"
Dy       0.00000000       0.00000000       0.00000000       0.00000000       0.00000000       0.61957216
Dy       0.00000000       0.00000000       3.64848485       0.00000000       0.00000000      -0.61957216
2
Properties=species:S:1:pos:R:3:forces:R:3 energy=-11.604479682692583 pbc="F F F"
Dy       0.00000000       0.00000000       0.00000000       0.00000000       0.00000000       0.62464297
Dy       0.00000000       0.00000000       3.70727273       0.00000000       0.00000000      -0.62464297
2
Properties=species:S:1:pos:R:3:forces:R:3 energy=-11.568740317138673 pbc="F F F"
Dy       0.00000000       0.00000000       0.00000000       0.00000000       0.00000000       0.58415562
Dy       0.00000000       0.00000000       3.76606061       0.00000000       0.00000000      -0.58415562
2
Properties=species:S:1:pos:R:3:forces:R:3 energy=-11.53650953436236 pbc="F F F"
Dy       0.00000000       0.00000000       0.00000000       0.00000000       0.00000000       0.50759900
Dy       0.00000000       0.00000000       3.82484848       0.00000000       0.00000000      -0.50759900
2
Properties=species:S:1:pos:R:3:forces:R:3 energy=-11.5094419946282 pbc="F F F"
Dy       0.00000000       0.00000000       0.00000000       0.00000000       0.00000000       0.41159469
Dy       0.00000000       0.00000000       3.88363636       0.00000000       0.00000000      -0.41159469
2
Properties=species:S:1:pos:R:3:forces:R:3 energy=-11.488115710582683 pbc="F F F"
Dy       0.00000000       0.00000000       0.00000000       0.00000000       0.00000000       0.31546190
Dy       0.00000000       0.00000000       3.94242424       0.00000000       0.00000000      -0.31546190
2
Properties=species:S:1:pos:R:3:forces:R:3 energy=-11.472027304225227 pbc="F F F"
Dy       0.00000000       0.00000000       0.00000000       0.00000000       0.00000000       0.23565350
Dy       0.00000000       0.00000000       4.00121212       0.00000000       0.00000000      -0.23565350
2
Properties=species:S:1:pos:R:3:forces:R:3 energy=-11.459893380663448 pbc="F F F"
Dy       0.00000000       0.00000000       0.00000000       0.00000000       0.00000000       0.18187904
Dy       0.00000000       0.00000000       4.06000000       0.00000000       0.00000000      -0.18187904
2
Properties=species:S:1:pos:R:3:forces:R:3 energy=-11.450085466957889 pbc="F F F"
Dy       0.00000000       0.00000000       0.00000000       0.00000000       0.00000000       0.15637060
Dy       0.00000000       0.00000000       4.11878788       0.00000000       0.00000000      -0.15637060
2
Properties=species:S:1:pos:R:3:forces:R:3 energy=-11.441019149256968 pbc="F F F"
Dy       0.00000000       0.00000000       0.00000000       0.00000000       0.00000000       0.15570457
Dy       0.00000000       0.00000000       4.17757576       0.00000000       0.00000000      -0.15570457
2
Properties=species:S:1:pos:R:3:forces:R:3 energy=-11.431414451227955 pbc="F F F"
Dy       0.00000000       0.00000000       0.00000000       0.00000000       0.00000000       0.17354995
Dy       0.00000000       0.00000000       4.23636364       0.00000000       0.00000000      -0.17354995
2
Properties=species:S:1:pos:R:3:forces:R:3 energy=-11.420387450147768 pbc="F F F"
Dy       0.00000000       0.00000000       0.00000000       0.00000000       0.00000000       0.20298296
Dy       0.00000000       0.00000000       4.29515152       0.00000000       0.00000000      -0.20298296
2
Properties=species:S:1:pos:R:3:forces:R:3 energy=-11.407442723536187 pbc="F F F"
Dy       0.00000000       0.00000000       0.00000000       0.00000000       0.00000000       0.23786306
Dy       0.00000000       0.00000000       4.35393939       0.00000000       0.00000000      -0.23786306
2
Properties=species:S:1:pos:R:3:forces:R:3 energy=-11.39240940862714 pbc="F F F"
Dy       0.00000000       0.00000000       0.00000000       0.00000000       0.00000000       0.27336723
Dy       0.00000000       0.00000000       4.41272727       0.00000000       0.00000000      -0.27336723
2
Properties=species:S:1:pos:R:3:forces:R:3 energy=-11.375358416436862 pbc="F F F"
Dy       0.00000000       0.00000000       0.00000000       0.00000000       0.00000000       0.30600905
Dy       0.00000000       0.00000000       4.47151515       0.00000000       0.00000000      -0.30600905
2
Properties=species:S:1:pos:R:3:forces:R:3 energy=-11.356532724839772 pbc="F F F"
Dy       0.00000000       0.00000000       0.00000000       0.00000000       0.00000000       0.33344644
Dy       0.00000000       0.00000000       4.53030303       0.00000000       0.00000000      -0.33344644
2
Properties=species:S:1:pos:R:3:forces:R:3 energy=-11.336284556440841 pbc="F F F"
Dy       0.00000000       0.00000000       0.00000000       0.00000000       0.00000000       0.35423461
Dy       0.00000000       0.00000000       4.58909091       0.00000000       0.00000000      -0.35423461
2
Properties=species:S:1:pos:R:3:forces:R:3 energy=-11.315028724561811 pbc="F F F"
Dy       0.00000000       0.00000000       0.00000000       0.00000000       0.00000000       0.36762887
Dy       0.00000000       0.00000000       4.64787879       0.00000000       0.00000000      -0.36762887
2
Properties=species:S:1:pos:R:3:forces:R:3 energy=-11.293210075265913 pbc="F F F"
Dy       0.00000000       0.00000000       0.00000000       0.00000000       0.00000000       0.37335327
Dy       0.00000000       0.00000000       4.70666667       0.00000000       0.00000000      -0.37335327
2
Properties=species:S:1:pos:R:3:forces:R:3 energy=-11.271280808250529 pbc="F F F"
Dy       0.00000000       0.00000000       0.00000000       0.00000000       0.00000000       0.37144181
Dy       0.00000000       0.00000000       4.76545455       0.00000000       0.00000000      -0.37144181
2
Properties=species:S:1:pos:R:3:forces:R:3 energy=-11.249683228346129 pbc="F F F"
Dy       0.00000000       0.00000000       0.00000000       0.00000000       0.00000000       0.36203417
Dy       0.00000000       0.00000000       4.82424242       0.00000000       0.00000000      -0.36203417
2
Properties=species:S:1:pos:R:3:forces:R:3 energy=-11.228860286618898 pbc="F F F"
Dy       0.00000000       0.00000000       0.00000000       0.00000000       0.00000000       0.34522554
Dy       0.00000000       0.00000000       4.88303030       0.00000000       0.00000000      -0.34522554
2
Properties=species:S:1:pos:R:3:forces:R:3 energy=-11.209240226547012 pbc="F F F"
Dy       0.00000000       0.00000000       0.00000000       0.00000000       0.00000000       0.32099059
Dy       0.00000000       0.00000000       4.94181818       0.00000000       0.00000000      -0.32099059
2
Properties=species:S:1:pos:R:3:forces:R:3 energy=-11.191264259582749 pbc="F F F"
Dy       0.00000000       0.00000000       0.00000000       0.00000000       0.00000000       0.28936952
Dy       0.00000000       0.00000000       5.00060606       0.00000000       0.00000000      -0.28936952
2
Properties=species:S:1:pos:R:3:forces:R:3 energy=-11.175350382549261 pbc="F F F"
Dy       0.00000000       0.00000000       0.00000000       0.00000000       0.00000000       0.25095561
Dy       0.00000000       0.00000000       5.05939394       0.00000000       0.00000000      -0.25095561
2
Properties=species:S:1:pos:R:3:forces:R:3 energy=-11.161853152256889 pbc="F F F"
Dy       0.00000000       0.00000000       0.00000000       0.00000000       0.00000000       0.20770794
Dy       0.00000000       0.00000000       5.11818182       0.00000000       0.00000000      -0.20770794
2
Properties=species:S:1:pos:R:3:forces:R:3 energy=-11.150953002261664 pbc="F F F"
Dy       0.00000000       0.00000000       0.00000000       0.00000000       0.00000000       0.16330931
Dy       0.00000000       0.00000000       5.17696970       0.00000000       0.00000000      -0.16330931
2
Properties=species:S:1:pos:R:3:forces:R:3 energy=-11.142586687996651 pbc="F F F"
Dy       0.00000000       0.00000000       0.00000000       0.00000000       0.00000000       0.12216511
Dy       0.00000000       0.00000000       5.23575758       0.00000000       0.00000000      -0.12216511
2
Properties=species:S:1:pos:R:3:forces:R:3 energy=-11.136474670894419 pbc="F F F"
Dy       0.00000000       0.00000000       0.00000000       0.00000000       0.00000000       0.08676910
Dy       0.00000000       0.00000000       5.29454545       0.00000000       0.00000000      -0.08676910
2
Properties=species:S:1:pos:R:3:forces:R:3 energy=-11.13226710658518 pbc="F F F"
Dy       0.00000000       0.00000000       0.00000000       0.00000000       0.00000000       0.05760199
Dy       0.00000000       0.00000000       5.35333333       0.00000000       0.00000000      -0.05760199
2
Properties=species:S:1:pos:R:3:forces:R:3 energy=-11.129461721199634 pbc="F F F"
Dy       0.00000000       0.00000000       0.00000000       0.00000000       0.00000000       0.04104899
Dy       0.00000000       0.00000000       5.41212121       0.00000000       0.00000000      -0.04104899
2
Properties=species:S:1:pos:R:3:forces:R:3 energy=-11.126971568820434 pbc="F F F"
Dy       0.00000000       0.00000000       0.00000000       0.00000000       0.00000000       0.04737876
Dy       0.00000000       0.00000000       5.47090909       0.00000000       0.00000000      -0.04737876
2
Properties=species:S:1:pos:R:3:forces:R:3 energy=-11.123682968971151 pbc="F F F"
Dy       0.00000000       0.00000000       0.00000000       0.00000000       0.00000000       0.06397749
Dy       0.00000000       0.00000000       5.52969697       0.00000000       0.00000000      -0.06397749
2
Properties=species:S:1:pos:R:3:forces:R:3 energy=-11.119653251865596 pbc="F F F"
Dy       0.00000000       0.00000000       0.00000000       0.00000000       0.00000000       0.07147792
Dy       0.00000000       0.00000000       5.58848485       0.00000000       0.00000000      -0.07147792
2
Properties=species:S:1:pos:R:3:forces:R:3 energy=-11.115269433927065 pbc="F F F"
Dy       0.00000000       0.00000000       0.00000000       0.00000000       0.00000000       0.08008727
Dy       0.00000000       0.00000000       5.64727273       0.00000000       0.00000000      -0.08008727
2
Properties=species:S:1:pos:R:3:forces:R:3 energy=-11.109741399697121 pbc="F F F"
Dy       0.00000000       0.00000000       0.00000000       0.00000000       0.00000000       0.11246473
Dy       0.00000000       0.00000000       5.70606061       0.00000000       0.00000000      -0.11246473
2
Properties=species:S:1:pos:R:3:forces:R:3 energy=-11.101885758767247 pbc="F F F"
Dy       0.00000000       0.00000000       0.00000000       0.00000000       0.00000000       0.15058690
Dy       0.00000000       0.00000000       5.76484848       0.00000000       0.00000000      -0.15058690
2
Properties=species:S:1:pos:R:3:forces:R:3 energy=-11.092975373951111 pbc="F F F"
Dy       0.00000000       0.00000000       0.00000000       0.00000000       0.00000000       0.14326251
Dy       0.00000000       0.00000000       5.82363636       0.00000000       0.00000000      -0.14326251
2
Properties=species:S:1:pos:R:3:forces:R:3 energy=-11.085871441628898 pbc="F F F"
Dy       0.00000000       0.00000000       0.00000000       0.00000000       0.00000000       0.09608930
Dy       0.00000000       0.00000000       5.88242424       0.00000000       0.00000000      -0.09608930
2
Properties=species:S:1:pos:R:3:forces:R:3 energy=-11.081622708141946 pbc="F F F"
Dy       0.00000000       0.00000000       0.00000000       0.00000000       0.00000000       0.05123445
Dy       0.00000000       0.00000000       5.94121212       0.00000000       0.00000000      -0.05123445
2
Properties=species:S:1:pos:R:3:forces:R:3 energy=-11.079297556588791 pbc="F F F"
Dy       0.00000000       0.00000000       0.00000000       0.00000000       0.00000000       0.03349671
Dy       0.00000000       0.00000000       6.00000000       0.00000000       0.00000000      -0.03349671
