2
Properties=species:S:1:pos:R:3:forces:R:3 energy=12645.72085688027 pbc="F F F"
Dy       0.00000000       0.00000000       0.00000000       0.00000000       0.00000000 -219071.64062500
Dy       0.00000000       0.00000000       0.18000000       0.00000000       0.00000000  219071.64062500
2
Properties=species:S:1:pos:R:3:forces:R:3 energy=4955.226227974021 pbc="F F F"
Dy       0.00000000       0.00000000       0.00000000       0.00000000       0.00000000  -73249.14062500
Dy       0.00000000       0.00000000       0.23878788       0.00000000       0.00000000   73249.14062500
2
Properties=species:S:1:pos:R:3:forces:R:3 energy=2183.2450268021457 pbc="F F F"
Dy       0.00000000       0.00000000       0.00000000       0.00000000       0.00000000  -28831.27929688
Dy       0.00000000       0.00000000       0.29757576       0.00000000       0.00000000   28831.27929688
2
Properties=species:S:1:pos:R:3:forces:R:3 energy=1040.0491039632545 pbc="F F F"
Dy       0.00000000       0.00000000       0.00000000       0.00000000       0.00000000  -12556.54785156
Dy       0.00000000       0.00000000       0.35636364       0.00000000       0.00000000   12556.54785156
2
Properties=species:S:1:pos:R:3:forces:R:3 energy=525.5466625570045 pbc="F F F"
Dy       0.00000000       0.00000000       0.00000000       0.00000000       0.00000000   -5876.18652344
Dy       0.00000000       0.00000000       0.41515152       0.00000000       0.00000000    5876.18652344
2
Properties=species:S:1:pos:R:3:forces:R:3 energy=278.37143063608215 pbc="F F F"
Dy       0.00000000       0.00000000       0.00000000       0.00000000       0.00000000   -2913.61474609
Dy       0.00000000       0.00000000       0.47393939       0.00000000       0.00000000    2913.61474609
2
Properties=species:S:1:pos:R:3:forces:R:3 energy=152.9918377532456 pbc="F F F"
Dy       0.00000000       0.00000000       0.00000000       0.00000000       0.00000000   -1518.93652344
Dy       0.00000000       0.00000000       0.53272727       0.00000000       0.00000000    1518.93652344
2
Properties=species:S:1:pos:R:3:forces:R:3 energy=86.27990846997041 pbc="F F F"
Dy       0.00000000       0.00000000       0.00000000       0.00000000       0.00000000    -828.03643799
Dy       0.00000000       0.00000000       0.59151515       0.00000000       0.00000000     828.03643799
2
Properties=species:S:1:pos:R:3:forces:R:3 energy=49.23895393081181 pbc="F F F"
Dy       0.00000000       0.00000000       0.00000000       0.00000000       0.00000000    -469.70812988
Dy       0.00000000       0.00000000       0.65030303       0.00000000       0.00000000     469.70812988
2
Properties=species:S:1:pos:R:3:forces:R:3 energy=27.882577346219033 pbc="F F F"
Dy       0.00000000       0.00000000       0.00000000       0.00000000       0.00000000    -275.91705322
Dy       0.00000000       0.00000000       0.70909091       0.00000000       0.00000000     275.91705322
2
Properties=species:S:1:pos:R:3:forces:R:3 energy=15.158001463861705 pbc="F F F"
Dy       0.00000000       0.00000000       0.00000000       0.00000000       0.00000000    -167.05274963
Dy       0.00000000       0.00000000       0.76787879       0.00000000       0.00000000     167.05274963
2
Properties=species:S:1:pos:R:3:forces:R:3 energy=7.359841075609941 pbc="F F F"
Dy       0.00000000       0.00000000       0.00000000       0.00000000       0.00000000    -103.76224518
Dy       0.00000000       0.00000000       0.82666667       0.00000000       0.00000000     103.76224518
2
Properties=species:S:1:pos:R:3:forces:R:3 energy=2.467863077852021 pbc="F F F"
Dy       0.00000000       0.00000000       0.00000000       0.00000000       0.00000000     -65.78366089
Dy       0.00000000       0.00000000       0.88545455       0.00000000       0.00000000      65.78366089
2
Properties=species:S:1:pos:R:3:forces:R:3 energy=-0.6554953191959404 pbc="F F F"
Dy       0.00000000       0.00000000       0.00000000       0.00000000       0.00000000     -42.28764725
Dy       0.00000000       0.00000000       0.94424242       0.00000000       0.00000000      42.28764725
2
Properties=species:S:1:pos:R:3:forces:R:3 energy=-2.6700765179848256 pbc="F F F"
Dy       0.00000000       0.00000000       0.00000000       0.00000000       0.00000000     -27.34654427
Dy       0.00000000       0.00000000       1.00303030       0.00000000       0.00000000      27.34654427
2
Properties=species:S:1:pos:R:3:forces:R:3 energy=-3.974446764547349 pbc="F F F"
Dy       0.00000000       0.00000000       0.00000000       0.00000000       0.00000000     -17.74394798
Dy       0.00000000       0.00000000       1.06181818       0.00000000       0.00000000      17.74394798
2
Properties=species:S:1:pos:R:3:forces:R:3 energy=-4.826594937946892 pbc="F F F"
Dy       0.00000000       0.00000000       0.00000000       0.00000000       0.00000000     -11.74510479
Dy       0.00000000       0.00000000       1.12060606       0.00000000       0.00000000      11.74510479
2
Properties=species:S:1:pos:R:3:forces:R:3 energy=-5.403511948026083 pbc="F F F"
Dy       0.00000000       0.00000000       0.00000000       0.00000000       0.00000000      -8.20488453
Dy       0.00000000       0.00000000       1.17939394       0.00000000       0.00000000       8.20488453
2
Properties=species:S:1:pos:R:3:forces:R:3 energy=-5.820460265163392 pbc="F F F"
Dy       0.00000000       0.00000000       0.00000000       0.00000000       0.00000000      -6.16543198
Dy       0.00000000       0.00000000       1.23818182       0.00000000       0.00000000       6.16543198
2
Properties=species:S:1:pos:R:3:forces:R:3 energy=-6.144542709747934 pbc="F F F"
Dy       0.00000000       0.00000000       0.00000000       0.00000000       0.00000000      -4.95471239
Dy       0.00000000       0.00000000       1.29696970       0.00000000       0.00000000       4.95471239
2
Properties=species:S:1:pos:R:3:forces:R:3 energy=-6.410778616158859 pbc="F F F"
Dy       0.00000000       0.00000000       0.00000000       0.00000000       0.00000000      -4.15538597
Dy       0.00000000       0.00000000       1.35575758       0.00000000       0.00000000       4.15538597
2
Properties=species:S:1:pos:R:3:forces:R:3 energy=-6.6405864291554515 pbc="F F F"
Dy       0.00000000       0.00000000       0.00000000       0.00000000       0.00000000      -3.74848318
Dy       0.00000000       0.00000000       1.41454545       0.00000000       0.00000000       3.74848318
2
Properties=species:S:1:pos:R:3:forces:R:3 energy=-6.86420276840622 pbc="F F F"
Dy       0.00000000       0.00000000       0.00000000       0.00000000       0.00000000      -3.97843671
Dy       0.00000000       0.00000000       1.47333333       0.00000000       0.00000000       3.97843671
2
Properties=species:S:1:pos:R:3:forces:R:3 energy=-7.120263689436268 pbc="F F F"
Dy       0.00000000       0.00000000       0.00000000       0.00000000       0.00000000      -4.78982830
Dy       0.00000000       0.00000000       1.53212121       0.00000000       0.00000000       4.78982830
2
Properties=species:S:1:pos:R:3:forces:R:3 energy=-7.424253875408198 pbc="F F F"
Dy       0.00000000       0.00000000       0.00000000       0.00000000       0.00000000      -5.42900324
Dy       0.00000000       0.00000000       1.59090909       0.00000000       0.00000000       5.42900324
2
Properties=species:S:1:pos:R:3:forces:R:3 energy=-7.737350008506099 pbc="F F F"
Dy       0.00000000       0.00000000       0.00000000       0.00000000       0.00000000      -5.05415440
Dy       0.00000000       0.00000000       1.64969697       0.00000000       0.00000000       5.05415440
2
Properties=species:S:1:pos:R:3:forces:R:3 energy=-8.011078050997899 pbc="F F F"
Dy       0.00000000       0.00000000       0.00000000       0.00000000       0.00000000      -4.30620146
Dy       0.00000000       0.00000000       1.70848485       0.00000000       0.00000000       4.30620146
2
Properties=species:S:1:pos:R:3:forces:R:3 energy=-8.254467188570713 pbc="F F F"
Dy       0.00000000       0.00000000       0.00000000       0.00000000       0.00000000      -4.06067371
Dy       0.00000000       0.00000000       1.76727273       0.00000000       0.00000000       4.06067371
2
Properties=species:S:1:pos:R:3:forces:R:3 energy=-8.49453853786596 pbc="F F F"
Dy       0.00000000       0.00000000       0.00000000       0.00000000       0.00000000      -4.12569237
Dy       0.00000000       0.00000000       1.82606061       0.00000000       0.00000000       4.12569237
2
Properties=species:S:1:pos:R:3:forces:R:3 energy=-8.739816740172223 pbc="F F F"
Dy       0.00000000       0.00000000       0.00000000       0.00000000       0.00000000      -4.21494961
Dy       0.00000000       0.00000000       1.88484848       0.00000000       0.00000000       4.21494961
2
Properties=species:S:1:pos:R:3:forces:R:3 energy=-8.990123116267544 pbc="F F F"
Dy       0.00000000       0.00000000       0.00000000       0.00000000       0.00000000      -4.30692053
Dy       0.00000000       0.00000000       1.94363636       0.00000000       0.00000000       4.30692053
2
Properties=species:S:1:pos:R:3:forces:R:3 energy=-9.247373243057499 pbc="F F F"
Dy       0.00000000       0.00000000       0.00000000       0.00000000       0.00000000      -4.45455074
Dy       0.00000000       0.00000000       2.00242424       0.00000000       0.00000000       4.45455074
2
Properties=species:S:1:pos:R:3:forces:R:3 energy=-9.514265638718863 pbc="F F F"
Dy       0.00000000       0.00000000       0.00000000       0.00000000       0.00000000      -4.61947441
Dy       0.00000000       0.00000000       2.06121212       0.00000000       0.00000000       4.61947441
2
Properties=species:S:1:pos:R:3:forces:R:3 energy=-9.788594939394423 pbc="F F F"
Dy       0.00000000       0.00000000       0.00000000       0.00000000       0.00000000      -4.68758583
Dy       0.00000000       0.00000000       2.12000000       0.00000000       0.00000000       4.68758583
2
Properties=species:S:1:pos:R:3:forces:R:3 energy=-10.061666014832541 pbc="F F F"
Dy       0.00000000       0.00000000       0.00000000       0.00000000       0.00000000      -4.56746864
Dy       0.00000000       0.00000000       2.17878788       0.00000000       0.00000000       4.56746864
2
Properties=species:S:1:pos:R:3:forces:R:3 energy=-10.321673752150618 pbc="F F F"
Dy       0.00000000       0.00000000       0.00000000       0.00000000       0.00000000      -4.24842262
Dy       0.00000000       0.00000000       2.23757576       0.00000000       0.00000000       4.24842262
2
Properties=species:S:1:pos:R:3:forces:R:3 energy=-10.558384605040473 pbc="F F F"
Dy       0.00000000       0.00000000       0.00000000       0.00000000       0.00000000      -3.78752542
Dy       0.00000000       0.00000000       2.29636364       0.00000000       0.00000000       3.78752542
2
Properties=species:S:1:pos:R:3:forces:R:3 energy=-10.765732558614046 pbc="F F F"
Dy       0.00000000       0.00000000       0.00000000       0.00000000       0.00000000      -3.26158261
Dy       0.00000000       0.00000000       2.35515152       0.00000000       0.00000000       3.26158261
2
Properties=species:S:1:pos:R:3:forces:R:3 energy=-10.941826708112767 pbc="F F F"
Dy       0.00000000       0.00000000       0.00000000       0.00000000       0.00000000      -2.73276138
Dy       0.00000000       0.00000000       2.41393939       0.00000000       0.00000000       2.73276138
2
Properties=species:S:1:pos:R:3:forces:R:3 energy=-11.087798266659034 pbc="F F F"
Dy       0.00000000       0.00000000       0.00000000       0.00000000       0.00000000      -2.24210668
Dy       0.00000000       0.00000000       2.47272727       0.00000000       0.00000000       2.24210668
2
Properties=species:S:1:pos:R:3:forces:R:3 energy=-11.206689572691447 pbc="F F F"
Dy       0.00000000       0.00000000       0.00000000       0.00000000       0.00000000      -1.81450701
Dy       0.00000000       0.00000000       2.53151515       0.00000000       0.00000000       1.81450701
2
Properties=species:S:1:pos:R:3:forces:R:3 energy=-11.302610927827525 pbc="F F F"
Dy       0.00000000       0.00000000       0.00000000       0.00000000       0.00000000      -1.46157050
Dy       0.00000000       0.00000000       2.59030303       0.00000000       0.00000000       1.46157050
2
Properties=species:S:1:pos:R:3:forces:R:3 energy=-11.380007348027268 pbc="F F F"
Dy       0.00000000       0.00000000       0.00000000       0.00000000       0.00000000      -1.18362832
Dy       0.00000000       0.00000000       2.64909091       0.00000000       0.00000000       1.18362832
2
Properties=species:S:1:pos:R:3:forces:R:3 energy=-11.443119712261808 pbc="F F F"
Dy       0.00000000       0.00000000       0.00000000       0.00000000       0.00000000      -0.97419989
Dy       0.00000000       0.00000000       2.70787879       0.00000000       0.00000000       0.97419989
2
Properties=species:S:1:pos:R:3:forces:R:3 energy=-11.495713804965956 pbc="F F F"
Dy       0.00000000       0.00000000       0.00000000       0.00000000       0.00000000      -0.82412916
Dy       0.00000000       0.00000000       2.76666667       0.00000000       0.00000000       0.82412916
2
Properties=species:S:1:pos:R:3:forces:R:3 energy=-11.54096598916183 pbc="F F F"
Dy       0.00000000       0.00000000       0.00000000       0.00000000       0.00000000      -0.72238249
Dy       0.00000000       0.00000000       2.82545455       0.00000000       0.00000000       0.72238249
2
Properties=species:S:1:pos:R:3:forces:R:3 energy=-11.581324872997822 pbc="F F F"
Dy       0.00000000       0.00000000       0.00000000       0.00000000       0.00000000      -0.65504336
Dy       0.00000000       0.00000000       2.88424242       0.00000000       0.00000000       0.65504336
2
Properties=species:S:1:pos:R:3:forces:R:3 energy=-11.618335770317934 pbc="F F F"
Dy       0.00000000       0.00000000       0.00000000       0.00000000       0.00000000      -0.60569638
Dy       0.00000000       0.00000000       2.94303030       0.00000000       0.00000000       0.60569638
2
Properties=species:S:1:pos:R:3:forces:R:3 energy=-11.652571323191166 pbc="F F F"
Dy       0.00000000       0.00000000       0.00000000       0.00000000       0.00000000      -0.55809516
Dy       0.00000000       0.00000000       3.00181818       0.00000000       0.00000000       0.55809516
2
Properties=species:S:1:pos:R:3:forces:R:3 energy=-11.683735008916903 pbc="F F F"
Dy       0.00000000       0.00000000       0.00000000       0.00000000       0.00000000      -0.49943554
Dy       0.00000000       0.00000000       3.06060606       0.00000000       0.00000000       0.49943554
2
Properties=species:S:1:pos:R:3:forces:R:3 energy=-11.710926730322553 pbc="F F F"
Dy       0.00000000       0.00000000       0.00000000       0.00000000       0.00000000      -0.42225718
Dy       0.00000000       0.00000000       3.11939394       0.00000000       0.00000000       0.42225718
2
Properties=species:S:1:pos:R:3:forces:R:3 energy=-11.732970613631332 pbc="F F F"
Dy       0.00000000       0.00000000       0.00000000       0.00000000       0.00000000      -0.32419685
Dy       0.00000000       0.00000000       3.17818182       0.00000000       0.00000000       0.32419685
2
Properties=species:S:1:pos:R:3:forces:R:3 energy=-11.748661043764605 pbc="F F F"
Dy       0.00000000       0.00000000       0.00000000       0.00000000       0.00000000      -0.20662481
Dy       0.00000000       0.00000000       3.23696970       0.00000000       0.00000000       0.20662481
2
Properties=species:S:1:pos:R:3:forces:R:3 energy=-11.75695534456767 pbc="F F F"
Dy       0.00000000       0.00000000       0.00000000       0.00000000       0.00000000      -0.07335616
Dy       0.00000000       0.00000000       3.29575758       0.00000000       0.00000000       0.07335616
2
Properties=species:S:1:pos:R:3:forces:R:3 energy=-11.757088308426743 pbc="F F F"
Dy       0.00000000       0.00000000       0.00000000       0.00000000       0.00000000       0.06995158
Dy       0.00000000       0.00000000       3.35454545       0.00000000       0.00000000      -0.06995158
2
Properties=species:S:1:pos:R:3:forces:R:3 energy=-11.74867891909338 pbc="F F F"
Dy       0.00000000       0.00000000       0.00000000       0.00000000       0.00000000       0.21585719
Dy       0.00000000       0.00000000       3.41333333       0.00000000       0.00000000      -0.21585719
2
Properties=species:S:1:pos:R:3:forces:R:3 energy=-11.731839108570405 pbc="F F F"
Dy       0.00000000       0.00000000       0.00000000       0.00000000       0.00000000       0.35502505
Dy       0.00000000       0.00000000       3.47212121       0.00000000       0.00000000      -0.35502505
2
Properties=species:S:1:pos:R:3:forces:R:3 energy=-11.70728629068126 pbc="F F F"
Dy       0.00000000       0.00000000       0.00000000       0.00000000       0.00000000       0.47636947
Dy       0.00000000       0.00000000       3.53090909       0.00000000       0.00000000      -0.47636947
2
Properties=species:S:1:pos:R:3:forces:R:3 energy=-11.676411122631606 pbc="F F F"
Dy       0.00000000       0.00000000       0.00000000       0.00000000       0.00000000       0.56805682
Dy       0.00000000       0.00000000       3.58969697       0.00000000       0.00000000      -0.56805682
2
Properties=species:S:1:pos:R:3:forces:R:3 energy=-11.641285159746447 pbc="F F F"
Dy       0.00000000       0.00000000       0.00000000       0.00000000       0.00000000       0.61957198
Dy       0.00000000       0.00000000       3.64848485       0.00000000       0.00000000      -0.61957198
2
Properties=species:S:1:pos:R:3:forces:R:3 energy=-11.6044806363669 pbc="F F F"
Dy       0.00000000       0.00000000       0.00000000       0.00000000       0.00000000       0.62464362
Dy       0.00000000       0.00000000       3.70727273       0.00000000       0.00000000      -0.62464362
2
Properties=species:S:1:pos:R:3:forces:R:3 energy=-11.568740317138673 pbc="F F F"
Dy       0.00000000       0.00000000       0.00000000       0.00000000       0.00000000       0.58415586
Dy       0.00000000       0.00000000       3.76606061       0.00000000       0.00000000      -0.58415586
2
Properties=species:S:1:pos:R:3:forces:R:3 energy=-11.536509547033647 pbc="F F F"
Dy       0.00000000       0.00000000       0.00000000       0.00000000       0.00000000       0.50759912
Dy       0.00000000       0.00000000       3.82484848       0.00000000       0.00000000      -0.50759912
2
Properties=species:S:1:pos:R:3:forces:R:3 energy=-11.5094419946282 pbc="F F F"
Dy       0.00000000       0.00000000       0.00000000       0.00000000       0.00000000       0.41159511
Dy       0.00000000       0.00000000       3.88363636       0.00000000       0.00000000      -0.41159511
2
Properties=species:S:1:pos:R:3:forces:R:3 energy=-11.488115710582683 pbc="F F F"
Dy       0.00000000       0.00000000       0.00000000       0.00000000       0.00000000       0.31546238
Dy       0.00000000       0.00000000       3.94242424       0.00000000       0.00000000      -0.31546238
2
Properties=species:S:1:pos:R:3:forces:R:3 energy=-11.472027304225227 pbc="F F F"
Dy       0.00000000       0.00000000       0.00000000       0.00000000       0.00000000       0.23565505
Dy       0.00000000       0.00000000       4.00121212       0.00000000       0.00000000      -0.23565505
2
Properties=species:S:1:pos:R:3:forces:R:3 energy=-11.459893380663448 pbc="F F F"
Dy       0.00000000       0.00000000       0.00000000       0.00000000       0.00000000       0.18187962
Dy       0.00000000       0.00000000       4.06000000       0.00000000       0.00000000      -0.18187962
2
Properties=species:S:1:pos:R:3:forces:R:3 energy=-11.450085466957889 pbc="F F F"
Dy       0.00000000       0.00000000       0.00000000       0.00000000       0.00000000       0.15637119
Dy       0.00000000       0.00000000       4.11878788       0.00000000       0.00000000      -0.15637119
2
Properties=species:S:1:pos:R:3:forces:R:3 energy=-11.441019149256968 pbc="F F F"
Dy       0.00000000       0.00000000       0.00000000       0.00000000       0.00000000       0.15570481
Dy       0.00000000       0.00000000       4.17757576       0.00000000       0.00000000      -0.15570481
2
Properties=species:S:1:pos:R:3:forces:R:3 energy=-11.431414463899245 pbc="F F F"
Dy       0.00000000       0.00000000       0.00000000       0.00000000       0.00000000       0.17355013
Dy       0.00000000       0.00000000       4.23636364       0.00000000       0.00000000      -0.17355013
2
Properties=species:S:1:pos:R:3:forces:R:3 energy=-11.420387450147768 pbc="F F F"
Dy       0.00000000       0.00000000       0.00000000       0.00000000       0.00000000       0.20298314
Dy       0.00000000       0.00000000       4.29515152       0.00000000       0.00000000      -0.20298314
2
Properties=species:S:1:pos:R:3:forces:R:3 energy=-11.407443677210503 pbc="F F F"
Dy       0.00000000       0.00000000       0.00000000       0.00000000       0.00000000       0.23786288
Dy       0.00000000       0.00000000       4.35393939       0.00000000       0.00000000      -0.23786288
2
Properties=species:S:1:pos:R:3:forces:R:3 energy=-11.392409427634073 pbc="F F F"
Dy       0.00000000       0.00000000       0.00000000       0.00000000       0.00000000       0.27336875
Dy       0.00000000       0.00000000       4.41272727       0.00000000       0.00000000      -0.27336875
2
Properties=species:S:1:pos:R:3:forces:R:3 energy=-11.375358416436862 pbc="F F F"
Dy       0.00000000       0.00000000       0.00000000       0.00000000       0.00000000       0.30600914
Dy       0.00000000       0.00000000       4.47151515       0.00000000       0.00000000      -0.30600914
2
Properties=species:S:1:pos:R:3:forces:R:3 energy=-11.356532724839772 pbc="F F F"
Dy       0.00000000       0.00000000       0.00000000       0.00000000       0.00000000       0.33344615
Dy       0.00000000       0.00000000       4.53030303       0.00000000       0.00000000      -0.33344615
2
Properties=species:S:1:pos:R:3:forces:R:3 energy=-11.336284575447774 pbc="F F F"
Dy       0.00000000       0.00000000       0.00000000       0.00000000       0.00000000       0.35423410
Dy       0.00000000       0.00000000       4.58909091       0.00000000       0.00000000      -0.35423410
2
Properties=species:S:1:pos:R:3:forces:R:3 energy=-11.315028724561811 pbc="F F F"
Dy       0.00000000       0.00000000       0.00000000       0.00000000       0.00000000       0.36762860
Dy       0.00000000       0.00000000       4.64787879       0.00000000       0.00000000      -0.36762860
2
Properties=species:S:1:pos:R:3:forces:R:3 energy=-11.293210075265913 pbc="F F F"
Dy       0.00000000       0.00000000       0.00000000       0.00000000       0.00000000       0.37335259
Dy       0.00000000       0.00000000       4.70666667       0.00000000       0.00000000      -0.37335259
2
Properties=species:S:1:pos:R:3:forces:R:3 energy=-11.271280808250529 pbc="F F F"
Dy       0.00000000       0.00000000       0.00000000       0.00000000       0.00000000       0.37144199
Dy       0.00000000       0.00000000       4.76545455       0.00000000       0.00000000      -0.37144199
2
Properties=species:S:1:pos:R:3:forces:R:3 energy=-11.249684182020445 pbc="F F F"
Dy       0.00000000       0.00000000       0.00000000       0.00000000       0.00000000       0.36203605
Dy       0.00000000       0.00000000       4.82424242       0.00000000       0.00000000      -0.36203605
2
Properties=species:S:1:pos:R:3:forces:R:3 energy=-11.228860286618898 pbc="F F F"
Dy       0.00000000       0.00000000       0.00000000       0.00000000       0.00000000       0.34522587
Dy       0.00000000       0.00000000       4.88303030       0.00000000       0.00000000      -0.34522587
2
Properties=species:S:1:pos:R:3:forces:R:3 energy=-11.209239272872695 pbc="F F F"
Dy       0.00000000       0.00000000       0.00000000       0.00000000       0.00000000       0.32099232
Dy       0.00000000       0.00000000       4.94181818       0.00000000       0.00000000      -0.32099232
2
Properties=species:S:1:pos:R:3:forces:R:3 energy=-11.191262352234116 pbc="F F F"
Dy       0.00000000       0.00000000       0.00000000       0.00000000       0.00000000       0.28936720
Dy       0.00000000       0.00000000       5.00060606       0.00000000       0.00000000      -0.28936720
2
Properties=species:S:1:pos:R:3:forces:R:3 energy=-11.175350382549261 pbc="F F F"
Dy       0.00000000       0.00000000       0.00000000       0.00000000       0.00000000       0.25095668
Dy       0.00000000       0.00000000       5.05939394       0.00000000       0.00000000      -0.25095668
2
Properties=species:S:1:pos:R:3:forces:R:3 energy=-11.161852198582572 pbc="F F F"
Dy       0.00000000       0.00000000       0.00000000       0.00000000       0.00000000       0.20770350
Dy       0.00000000       0.00000000       5.11818182       0.00000000       0.00000000      -0.20770350
2
Properties=species:S:1:pos:R:3:forces:R:3 energy=-11.150953014932954 pbc="F F F"
Dy       0.00000000       0.00000000       0.00000000       0.00000000       0.00000000       0.16330908
Dy       0.00000000       0.00000000       5.17696970       0.00000000       0.00000000      -0.16330908
2
Properties=species:S:1:pos:R:3:forces:R:3 energy=-11.142586687996651 pbc="F F F"
Dy       0.00000000       0.00000000       0.00000000       0.00000000       0.00000000       0.12216420
Dy       0.00000000       0.00000000       5.23575758       0.00000000       0.00000000      -0.12216420
2
Properties=species:S:1:pos:R:3:forces:R:3 energy=-11.136474670894419 pbc="F F F"
Dy       0.00000000       0.00000000       0.00000000       0.00000000       0.00000000       0.08677087
Dy       0.00000000       0.00000000       5.29454545       0.00000000       0.00000000      -0.08677087
2
Properties=species:S:1:pos:R:3:forces:R:3 energy=-11.132267125592113 pbc="F F F"
Dy       0.00000000       0.00000000       0.00000000       0.00000000       0.00000000       0.05760195
Dy       0.00000000       0.00000000       5.35333333       0.00000000       0.00000000      -0.05760195
2
Properties=species:S:1:pos:R:3:forces:R:3 energy=-11.129461721199634 pbc="F F F"
Dy       0.00000000       0.00000000       0.00000000       0.00000000       0.00000000       0.04104860
Dy       0.00000000       0.00000000       5.41212121       0.00000000       0.00000000      -0.04104860
2
Properties=species:S:1:pos:R:3:forces:R:3 energy=-11.126971568820434 pbc="F F F"
Dy       0.00000000       0.00000000       0.00000000       0.00000000       0.00000000       0.04737877
Dy       0.00000000       0.00000000       5.47090909       0.00000000       0.00000000      -0.04737877
2
Properties=species:S:1:pos:R:3:forces:R:3 energy=-11.123682987978084 pbc="F F F"
Dy       0.00000000       0.00000000       0.00000000       0.00000000       0.00000000       0.06397682
Dy       0.00000000       0.00000000       5.52969697       0.00000000       0.00000000      -0.06397682
2
Properties=species:S:1:pos:R:3:forces:R:3 energy=-11.119653251865596 pbc="F F F"
Dy       0.00000000       0.00000000       0.00000000       0.00000000       0.00000000       0.07147871
Dy       0.00000000       0.00000000       5.58848485       0.00000000       0.00000000      -0.07147871
2
Properties=species:S:1:pos:R:3:forces:R:3 energy=-11.115268480252748 pbc="F F F"
Dy       0.00000000       0.00000000       0.00000000       0.00000000       0.00000000       0.08010574
Dy       0.00000000       0.00000000       5.64727273       0.00000000       0.00000000      -0.08010574
2
Properties=species:S:1:pos:R:3:forces:R:3 energy=-11.109740465029738 pbc="F F F"
Dy       0.00000000       0.00000000       0.00000000       0.00000000       0.00000000       0.11246483
Dy       0.00000000       0.00000000       5.70606061       0.00000000       0.00000000      -0.11246483
2
Properties=species:S:1:pos:R:3:forces:R:3 energy=-11.101885758767247 pbc="F F F"
Dy       0.00000000       0.00000000       0.00000000       0.00000000       0.00000000       0.15059692
Dy       0.00000000       0.00000000       5.76484848       0.00000000       0.00000000      -0.15059692
2
Properties=species:S:1:pos:R:3:forces:R:3 energy=-11.092983003345642 pbc="F F F"
Dy       0.00000000       0.00000000       0.00000000       0.00000000       0.00000000       0.14321145
Dy       0.00000000       0.00000000       5.82363636       0.00000000       0.00000000      -0.14321145
2
Properties=species:S:1:pos:R:3:forces:R:3 energy=-11.085871454300188 pbc="F F F"
Dy       0.00000000       0.00000000       0.00000000       0.00000000       0.00000000       0.09607303
Dy       0.00000000       0.00000000       5.88242424       0.00000000       0.00000000      -0.09607303
2
Properties=species:S:1:pos:R:3:forces:R:3 energy=-11.081622708141946 pbc="F F F"
Dy       0.00000000       0.00000000       0.00000000       0.00000000       0.00000000       0.05121296
Dy       0.00000000       0.00000000       5.94121212       0.00000000       0.00000000      -0.05121296
2
Properties=species:S:1:pos:R:3:forces:R:3 energy=-11.079297556588791 pbc="F F F"
Dy       0.00000000       0.00000000       0.00000000       0.00000000       0.00000000       0.03349671
Dy       0.00000000       0.00000000       6.00000000       0.00000000       0.00000000      -0.03349671
