2
Properties=species:S:1:pos:R:3:forces:R:3 energy=13171.538655975146 pbc="F F F"
Er       0.00000000       0.00000000       0.00000000       0.00000000       0.00000000 -229006.70312500
Er       0.00000000       0.00000000       0.18000000       0.00000000       0.00000000  229006.70312500
2
Properties=species:S:1:pos:R:3:forces:R:3 energy=5142.649984100146 pbc="F F F"
Er       0.00000000       0.00000000       0.00000000       0.00000000       0.00000000  -76329.52343750
Er       0.00000000       0.00000000       0.23878788       0.00000000       0.00000000   76329.52343750
2
Properties=species:S:1:pos:R:3:forces:R:3 energy=2258.114583709521 pbc="F F F"
Er       0.00000000       0.00000000       0.00000000       0.00000000       0.00000000  -29943.98828125
Er       0.00000000       0.00000000       0.29757576       0.00000000       0.00000000   29943.98828125
2
Properties=species:S:1:pos:R:3:forces:R:3 energy=1072.532796600146 pbc="F F F"
Er       0.00000000       0.00000000       0.00000000       0.00000000       0.00000000  -12997.21582031
Er       0.00000000       0.00000000       0.35636364       0.00000000       0.00000000   12997.21582031
2
Properties=species:S:1:pos:R:3:forces:R:3 energy=540.7276208315673 pbc="F F F"
Er       0.00000000       0.00000000       0.00000000       0.00000000       0.00000000   -6063.02587891
Er       0.00000000       0.00000000       0.41515152       0.00000000       0.00000000    6063.02587891
2
Properties=species:S:1:pos:R:3:forces:R:3 energy=286.03014158352045 pbc="F F F"
Er       0.00000000       0.00000000       0.00000000       0.00000000       0.00000000   -2997.37231445
Er       0.00000000       0.00000000       0.47393939       0.00000000       0.00000000    2997.37231445
2
Properties=species:S:1:pos:R:3:forces:R:3 energy=157.21497132077707 pbc="F F F"
Er       0.00000000       0.00000000       0.00000000       0.00000000       0.00000000   -1557.94494629
Er       0.00000000       0.00000000       0.53272727       0.00000000       0.00000000    1557.94494629
2
Properties=species:S:1:pos:R:3:forces:R:3 energy=88.8963067953384 pbc="F F F"
Er       0.00000000       0.00000000       0.00000000       0.00000000       0.00000000    -846.17718506
Er       0.00000000       0.00000000       0.59151515       0.00000000       0.00000000     846.17718506
2
Properties=species:S:1:pos:R:3:forces:R:3 energy=51.13154014023704 pbc="F F F"
Er       0.00000000       0.00000000       0.00000000       0.00000000       0.00000000    -477.30566406
Er       0.00000000       0.00000000       0.65030303       0.00000000       0.00000000     477.30566406
2
Properties=species:S:1:pos:R:3:forces:R:3 energy=29.51437369709973 pbc="F F F"
Er       0.00000000       0.00000000       0.00000000       0.00000000       0.00000000    -277.72958374
Er       0.00000000       0.00000000       0.70909091       0.00000000       0.00000000     277.72958374
2
Properties=species:S:1:pos:R:3:forces:R:3 energy=16.790977497200508 pbc="F F F"
Er       0.00000000       0.00000000       0.00000000       0.00000000       0.00000000    -165.49488831
Er       0.00000000       0.00000000       0.76787879       0.00000000       0.00000000     165.49488831
2
Properties=species:S:1:pos:R:3:forces:R:3 energy=9.146932785828628 pbc="F F F"
Er       0.00000000       0.00000000       0.00000000       0.00000000       0.00000000    -100.27447510
Er       0.00000000       0.00000000       0.82666667       0.00000000       0.00000000     100.27447510
2
Properties=species:S:1:pos:R:3:forces:R:3 energy=4.490261966701129 pbc="F F F"
Er       0.00000000       0.00000000       0.00000000       0.00000000       0.00000000     -61.42714310
Er       0.00000000       0.00000000       0.88545455       0.00000000       0.00000000      61.42714310
2
Properties=species:S:1:pos:R:3:forces:R:3 energy=1.6261112825067816 pbc="F F F"
Er       0.00000000       0.00000000       0.00000000       0.00000000       0.00000000     -37.96637344
Er       0.00000000       0.00000000       0.94424242       0.00000000       0.00000000      37.96637344
2
Properties=species:S:1:pos:R:3:forces:R:3 energy=-0.15461327628693605 pbc="F F F"
Er       0.00000000       0.00000000       0.00000000       0.00000000       0.00000000     -23.82258987
Er       0.00000000       0.00000000       1.00303030       0.00000000       0.00000000      23.82258987
2
Properties=species:S:1:pos:R:3:forces:R:3 energy=-1.2882701488519968 pbc="F F F"
Er       0.00000000       0.00000000       0.00000000       0.00000000       0.00000000     -15.50158215
Er       0.00000000       0.00000000       1.06181818       0.00000000       0.00000000      15.50158215
2
Properties=species:S:1:pos:R:3:forces:R:3 energy=-2.043371508153589 pbc="F F F"
Er       0.00000000       0.00000000       0.00000000       0.00000000       0.00000000     -10.55219269
Er       0.00000000       0.00000000       1.12060606       0.00000000       0.00000000      10.55219269
2
Properties=species:S:1:pos:R:3:forces:R:3 energy=-2.5527741873761367 pbc="F F F"
Er       0.00000000       0.00000000       0.00000000       0.00000000       0.00000000      -6.89315128
Er       0.00000000       0.00000000       1.17939394       0.00000000       0.00000000       6.89315128
2
Properties=species:S:1:pos:R:3:forces:R:3 energy=-2.870083415890078 pbc="F F F"
Er       0.00000000       0.00000000       0.00000000       0.00000000       0.00000000      -4.07658720
Er       0.00000000       0.00000000       1.23818182       0.00000000       0.00000000       4.07658720
2
Properties=species:S:1:pos:R:3:forces:R:3 energy=-3.051986749141631 pbc="F F F"
Er       0.00000000       0.00000000       0.00000000       0.00000000       0.00000000      -2.25618958
Er       0.00000000       0.00000000       1.29696970       0.00000000       0.00000000       2.25618958
2
Properties=species:S:1:pos:R:3:forces:R:3 energy=-3.150038050375353 pbc="F F F"
Er       0.00000000       0.00000000       0.00000000       0.00000000       0.00000000      -1.19662082
Er       0.00000000       0.00000000       1.35575758       0.00000000       0.00000000       1.19662082
2
Properties=species:S:1:pos:R:3:forces:R:3 energy=-3.2065400651295066 pbc="F F F"
Er       0.00000000       0.00000000       0.00000000       0.00000000       0.00000000      -0.84251547
Er       0.00000000       0.00000000       1.41454545       0.00000000       0.00000000       0.84251547
2
Properties=species:S:1:pos:R:3:forces:R:3 energy=-3.2616419292599046 pbc="F F F"
Er       0.00000000       0.00000000       0.00000000       0.00000000       0.00000000      -1.12043798
Er       0.00000000       0.00000000       1.47333333       0.00000000       0.00000000       1.12043798
2
Properties=species:S:1:pos:R:3:forces:R:3 energy=-3.344920018033081 pbc="F F F"
Er       0.00000000       0.00000000       0.00000000       0.00000000       0.00000000      -1.72800231
Er       0.00000000       0.00000000       1.53212121       0.00000000       0.00000000       1.72800231
2
Properties=species:S:1:pos:R:3:forces:R:3 energy=-3.460989298514396 pbc="F F F"
Er       0.00000000       0.00000000       0.00000000       0.00000000       0.00000000      -2.15013289
Er       0.00000000       0.00000000       1.59090909       0.00000000       0.00000000       2.15013289
2
Properties=species:S:1:pos:R:3:forces:R:3 energy=-3.589870806290259 pbc="F F F"
Er       0.00000000       0.00000000       0.00000000       0.00000000       0.00000000      -2.20317650
Er       0.00000000       0.00000000       1.64969697       0.00000000       0.00000000       2.20317650
2
Properties=species:S:1:pos:R:3:forces:R:3 energy=-3.7216611967850652 pbc="F F F"
Er       0.00000000       0.00000000       0.00000000       0.00000000       0.00000000      -2.31942081
Er       0.00000000       0.00000000       1.70848485       0.00000000       0.00000000       2.31942081
2
Properties=species:S:1:pos:R:3:forces:R:3 energy=-3.866202863445381 pbc="F F F"
Er       0.00000000       0.00000000       0.00000000       0.00000000       0.00000000      -2.60949993
Er       0.00000000       0.00000000       1.76727273       0.00000000       0.00000000       2.60949993
2
Properties=species:S:1:pos:R:3:forces:R:3 energy=-4.0274836184319325 pbc="F F F"
Er       0.00000000       0.00000000       0.00000000       0.00000000       0.00000000      -2.85419989
Er       0.00000000       0.00000000       1.82606061       0.00000000       0.00000000       2.85419989
2
Properties=species:S:1:pos:R:3:forces:R:3 energy=-4.198476761702956 pbc="F F F"
Er       0.00000000       0.00000000       0.00000000       0.00000000       0.00000000      -2.93606925
Er       0.00000000       0.00000000       1.88484848       0.00000000       0.00000000       2.93606925
2
Properties=species:S:1:pos:R:3:forces:R:3 energy=-4.3703693232081955 pbc="F F F"
Er       0.00000000       0.00000000       0.00000000       0.00000000       0.00000000      -2.90083575
Er       0.00000000       0.00000000       1.94363636       0.00000000       0.00000000       2.90083575
2
Properties=species:S:1:pos:R:3:forces:R:3 energy=-4.539204166084089 pbc="F F F"
Er       0.00000000       0.00000000       0.00000000       0.00000000       0.00000000      -2.84639692
Er       0.00000000       0.00000000       2.00242424       0.00000000       0.00000000       2.84639692
2
Properties=species:S:1:pos:R:3:forces:R:3 energy=-4.705807281658434 pbc="F F F"
Er       0.00000000       0.00000000       0.00000000       0.00000000       0.00000000      -2.82937193
Er       0.00000000       0.00000000       2.06121212       0.00000000       0.00000000       2.82937193
2
Properties=species:S:1:pos:R:3:forces:R:3 energy=-4.872638267349164 pbc="F F F"
Er       0.00000000       0.00000000       0.00000000       0.00000000       0.00000000      -2.85036325
Er       0.00000000       0.00000000       2.12000000       0.00000000       0.00000000       2.85036325
2
Properties=species:S:1:pos:R:3:forces:R:3 energy=-5.040966948508056 pbc="F F F"
Er       0.00000000       0.00000000       0.00000000       0.00000000       0.00000000      -2.87240720
Er       0.00000000       0.00000000       2.17878788       0.00000000       0.00000000       2.87240720
2
Properties=species:S:1:pos:R:3:forces:R:3 energy=-5.2094987075787795 pbc="F F F"
Er       0.00000000       0.00000000       0.00000000       0.00000000       0.00000000      -2.85098648
Er       0.00000000       0.00000000       2.23757576       0.00000000       0.00000000       2.85098648
2
Properties=species:S:1:pos:R:3:forces:R:3 energy=-5.374800687817313 pbc="F F F"
Er       0.00000000       0.00000000       0.00000000       0.00000000       0.00000000      -2.76037073
Er       0.00000000       0.00000000       2.29636364       0.00000000       0.00000000       2.76037073
2
Properties=species:S:1:pos:R:3:forces:R:3 energy=-5.532614125179049 pbc="F F F"
Er       0.00000000       0.00000000       0.00000000       0.00000000       0.00000000      -2.59681630
Er       0.00000000       0.00000000       2.35515152       0.00000000       0.00000000       2.59681630
2
Properties=species:S:1:pos:R:3:forces:R:3 energy=-5.678872821803566 pbc="F F F"
Er       0.00000000       0.00000000       0.00000000       0.00000000       0.00000000      -2.36966276
Er       0.00000000       0.00000000       2.41393939       0.00000000       0.00000000       2.36966276
2
Properties=species:S:1:pos:R:3:forces:R:3 energy=-5.810340238471847 pbc="F F F"
Er       0.00000000       0.00000000       0.00000000       0.00000000       0.00000000      -2.09750319
Er       0.00000000       0.00000000       2.47272727       0.00000000       0.00000000       2.09750319
2
Properties=species:S:1:pos:R:3:forces:R:3 energy=-5.925137855520148 pbc="F F F"
Er       0.00000000       0.00000000       0.00000000       0.00000000       0.00000000      -1.80761385
Er       0.00000000       0.00000000       2.53151515       0.00000000       0.00000000       1.80761385
2
Properties=species:S:1:pos:R:3:forces:R:3 energy=-6.0231343940021755 pbc="F F F"
Er       0.00000000       0.00000000       0.00000000       0.00000000       0.00000000      -1.53093863
Er       0.00000000       0.00000000       2.59030303       0.00000000       0.00000000       1.53093863
2
Properties=species:S:1:pos:R:3:forces:R:3 energy=-6.10591555620853 pbc="F F F"
Er       0.00000000       0.00000000       0.00000000       0.00000000       0.00000000      -1.29347467
Er       0.00000000       0.00000000       2.64909091       0.00000000       0.00000000       1.29347467
2
Properties=species:S:1:pos:R:3:forces:R:3 energy=-6.1762779700571695 pbc="F F F"
Er       0.00000000       0.00000000       0.00000000       0.00000000       0.00000000      -1.10974181
Er       0.00000000       0.00000000       2.70787879       0.00000000       0.00000000       1.10974181
2
Properties=species:S:1:pos:R:3:forces:R:3 energy=-6.237472283796581 pbc="F F F"
Er       0.00000000       0.00000000       0.00000000       0.00000000       0.00000000      -0.98060489
Er       0.00000000       0.00000000       2.76666667       0.00000000       0.00000000       0.98060489
2
Properties=species:S:1:pos:R:3:forces:R:3 energy=-6.292424196159133 pbc="F F F"
Er       0.00000000       0.00000000       0.00000000       0.00000000       0.00000000      -0.89461005
Er       0.00000000       0.00000000       2.82545455       0.00000000       0.00000000       0.89461005
2
Properties=species:S:1:pos:R:3:forces:R:3 energy=-6.343117188323869 pbc="F F F"
Er       0.00000000       0.00000000       0.00000000       0.00000000       0.00000000      -0.83206093
Er       0.00000000       0.00000000       2.88424242       0.00000000       0.00000000       0.83206093
2
Properties=species:S:1:pos:R:3:forces:R:3 energy=-6.390290719337429 pbc="F F F"
Er       0.00000000       0.00000000       0.00000000       0.00000000       0.00000000      -0.77159297
Er       0.00000000       0.00000000       2.94303030       0.00000000       0.00000000       0.77159297
2
Properties=species:S:1:pos:R:3:forces:R:3 energy=-6.433564748640588 pbc="F F F"
Er       0.00000000       0.00000000       0.00000000       0.00000000       0.00000000      -0.69757962
Er       0.00000000       0.00000000       3.00181818       0.00000000       0.00000000       0.69757962
2
Properties=species:S:1:pos:R:3:forces:R:3 energy=-6.471940199672467 pbc="F F F"
Er       0.00000000       0.00000000       0.00000000       0.00000000       0.00000000      -0.60510796
Er       0.00000000       0.00000000       3.06060606       0.00000000       0.00000000       0.60510796
2
Properties=species:S:1:pos:R:3:forces:R:3 energy=-6.504459678773758 pbc="F F F"
Er       0.00000000       0.00000000       0.00000000       0.00000000       0.00000000      -0.50005084
Er       0.00000000       0.00000000       3.11939394       0.00000000       0.00000000       0.50005084
2
Properties=species:S:1:pos:R:3:forces:R:3 energy=-6.530726953592626 pbc="F F F"
Er       0.00000000       0.00000000       0.00000000       0.00000000       0.00000000      -0.39463407
Er       0.00000000       0.00000000       3.17818182       0.00000000       0.00000000       0.39463407
2
Properties=species:S:1:pos:R:3:forces:R:3 energy=-6.5510994732555465 pbc="F F F"
Er       0.00000000       0.00000000       0.00000000       0.00000000       0.00000000      -0.30127203
Er       0.00000000       0.00000000       3.23696970       0.00000000       0.00000000       0.30127203
2
Properties=species:S:1:pos:R:3:forces:R:3 energy=-6.566542834991418 pbc="F F F"
Er       0.00000000       0.00000000       0.00000000       0.00000000       0.00000000      -0.22774257
Er       0.00000000       0.00000000       3.29575758       0.00000000       0.00000000       0.22774257
2
Properties=species:S:1:pos:R:3:forces:R:3 energy=-6.578293496878093 pbc="F F F"
Er       0.00000000       0.00000000       0.00000000       0.00000000       0.00000000      -0.17533903
Er       0.00000000       0.00000000       3.35454545       0.00000000       0.00000000       0.17533903
2
Properties=species:S:1:pos:R:3:forces:R:3 energy=-6.587493123097443 pbc="F F F"
Er       0.00000000       0.00000000       0.00000000       0.00000000       0.00000000      -0.13993633
Er       0.00000000       0.00000000       3.41333333       0.00000000       0.00000000       0.13993633
2
Properties=species:S:1:pos:R:3:forces:R:3 energy=-6.5949459625208515 pbc="F F F"
Er       0.00000000       0.00000000       0.00000000       0.00000000       0.00000000      -0.11472826
Er       0.00000000       0.00000000       3.47212121       0.00000000       0.00000000       0.11472826
2
Properties=species:S:1:pos:R:3:forces:R:3 energy=-6.60105280109923 pbc="F F F"
Er       0.00000000       0.00000000       0.00000000       0.00000000       0.00000000      -0.09319963
Er       0.00000000       0.00000000       3.53090909       0.00000000       0.00000000       0.09319963
2
Properties=species:S:1:pos:R:3:forces:R:3 energy=-6.605892027507578 pbc="F F F"
Er       0.00000000       0.00000000       0.00000000       0.00000000       0.00000000      -0.07112779
Er       0.00000000       0.00000000       3.58969697       0.00000000       0.00000000       0.07112779
2
Properties=species:S:1:pos:R:3:forces:R:3 energy=-6.609375340156145 pbc="F F F"
Er       0.00000000       0.00000000       0.00000000       0.00000000       0.00000000      -0.04703758
Er       0.00000000       0.00000000       3.64848485       0.00000000       0.00000000       0.04703758
2
Properties=species:S:1:pos:R:3:forces:R:3 energy=-6.611388561535749 pbc="F F F"
Er       0.00000000       0.00000000       0.00000000       0.00000000       0.00000000      -0.02124860
Er       0.00000000       0.00000000       3.70727273       0.00000000       0.00000000       0.02124860
2
Properties=species:S:1:pos:R:3:forces:R:3 energy=-6.611851833741312 pbc="F F F"
Er       0.00000000       0.00000000       0.00000000       0.00000000       0.00000000       0.00567890
Er       0.00000000       0.00000000       3.76606061       0.00000000       0.00000000      -0.00567890
2
Properties=species:S:1:pos:R:3:forces:R:3 energy=-6.610693335407357 pbc="F F F"
Er       0.00000000       0.00000000       0.00000000       0.00000000       0.00000000       0.03406144
Er       0.00000000       0.00000000       3.82484848       0.00000000       0.00000000      -0.03406144
2
Properties=species:S:1:pos:R:3:forces:R:3 energy=-6.6077935867951645 pbc="F F F"
Er       0.00000000       0.00000000       0.00000000       0.00000000       0.00000000       0.06517546
Er       0.00000000       0.00000000       3.88363636       0.00000000       0.00000000      -0.06517546
2
Properties=species:S:1:pos:R:3:forces:R:3 energy=-6.602947754314696 pbc="F F F"
Er       0.00000000       0.00000000       0.00000000       0.00000000       0.00000000       0.10046992
Er       0.00000000       0.00000000       3.94242424       0.00000000       0.00000000      -0.10046992
2
Properties=species:S:1:pos:R:3:forces:R:3 energy=-6.59588531488968 pbc="F F F"
Er       0.00000000       0.00000000       0.00000000       0.00000000       0.00000000       0.14058784
Er       0.00000000       0.00000000       4.00121212       0.00000000       0.00000000      -0.14058784
2
Properties=species:S:1:pos:R:3:forces:R:3 energy=-6.5863376717994075 pbc="F F F"
Er       0.00000000       0.00000000       0.00000000       0.00000000       0.00000000       0.18475240
Er       0.00000000       0.00000000       4.06000000       0.00000000       0.00000000      -0.18475240
2
Properties=species:S:1:pos:R:3:forces:R:3 energy=-6.574127011116915 pbc="F F F"
Er       0.00000000       0.00000000       0.00000000       0.00000000       0.00000000       0.23074040
Er       0.00000000       0.00000000       4.11878788       0.00000000       0.00000000      -0.23074040
2
Properties=species:S:1:pos:R:3:forces:R:3 energy=-6.559234896567677 pbc="F F F"
Er       0.00000000       0.00000000       0.00000000       0.00000000       0.00000000       0.27535641
Er       0.00000000       0.00000000       4.17757576       0.00000000       0.00000000      -0.27535641
2
Properties=species:S:1:pos:R:3:forces:R:3 energy=-6.5418452989154385 pbc="F F F"
Er       0.00000000       0.00000000       0.00000000       0.00000000       0.00000000       0.31516755
Er       0.00000000       0.00000000       4.23636364       0.00000000       0.00000000      -0.31516755
2
Properties=species:S:1:pos:R:3:forces:R:3 energy=-6.522330316190049 pbc="F F F"
Er       0.00000000       0.00000000       0.00000000       0.00000000       0.00000000       0.34726480
Er       0.00000000       0.00000000       4.29515152       0.00000000       0.00000000      -0.34726480
2
Properties=species:S:1:pos:R:3:forces:R:3 energy=-6.501203036500889 pbc="F F F"
Er       0.00000000       0.00000000       0.00000000       0.00000000       0.00000000       0.36987054
Er       0.00000000       0.00000000       4.35393939       0.00000000       0.00000000      -0.36987054
2
Properties=species:S:1:pos:R:3:forces:R:3 energy=-6.479036418699171 pbc="F F F"
Er       0.00000000       0.00000000       0.00000000       0.00000000       0.00000000       0.38265845
Er       0.00000000       0.00000000       4.41272727       0.00000000       0.00000000      -0.38265845
2
Properties=species:S:1:pos:R:3:forces:R:3 energy=-6.456382407459094 pbc="F F F"
Er       0.00000000       0.00000000       0.00000000       0.00000000       0.00000000       0.38675147
Er       0.00000000       0.00000000       4.47151515       0.00000000       0.00000000      -0.38675147
2
Properties=species:S:1:pos:R:3:forces:R:3 energy=-6.4336898856084 pbc="F F F"
Er       0.00000000       0.00000000       0.00000000       0.00000000       0.00000000       0.38441268
Er       0.00000000       0.00000000       4.53030303       0.00000000       0.00000000      -0.38441268
2
Properties=species:S:1:pos:R:3:forces:R:3 energy=-6.411255102070866 pbc="F F F"
Er       0.00000000       0.00000000       0.00000000       0.00000000       0.00000000       0.37848496
Er       0.00000000       0.00000000       4.58909091       0.00000000       0.00000000      -0.37848496
2
Properties=species:S:1:pos:R:3:forces:R:3 energy=-6.389206100966826 pbc="F F F"
Er       0.00000000       0.00000000       0.00000000       0.00000000       0.00000000       0.37170491
Er       0.00000000       0.00000000       4.64787879       0.00000000       0.00000000      -0.37170491
2
Properties=species:S:1:pos:R:3:forces:R:3 energy=-6.367528795601411 pbc="F F F"
Er       0.00000000       0.00000000       0.00000000       0.00000000       0.00000000       0.36604732
Er       0.00000000       0.00000000       4.70666667       0.00000000       0.00000000      -0.36604732
2
Properties=species:S:1:pos:R:3:forces:R:3 energy=-6.346130056689254 pbc="F F F"
Er       0.00000000       0.00000000       0.00000000       0.00000000       0.00000000       0.36226234
Er       0.00000000       0.00000000       4.76545455       0.00000000       0.00000000      -0.36226234
2
Properties=species:S:1:pos:R:3:forces:R:3 energy=-6.324909733772307 pbc="F F F"
Er       0.00000000       0.00000000       0.00000000       0.00000000       0.00000000       0.35968918
Er       0.00000000       0.00000000       4.82424242       0.00000000       0.00000000      -0.35968918
2
Properties=species:S:1:pos:R:3:forces:R:3 energy=-6.303854077288987 pbc="F F F"
Er       0.00000000       0.00000000       0.00000000       0.00000000       0.00000000       0.35639066
Er       0.00000000       0.00000000       4.88303030       0.00000000       0.00000000      -0.35639066
2
Properties=species:S:1:pos:R:3:forces:R:3 energy=-6.283076244390043 pbc="F F F"
Er       0.00000000       0.00000000       0.00000000       0.00000000       0.00000000       0.34960049
Er       0.00000000       0.00000000       4.94181818       0.00000000       0.00000000      -0.34960049
2
Properties=species:S:1:pos:R:3:forces:R:3 energy=-6.2628730298890956 pbc="F F F"
Er       0.00000000       0.00000000       0.00000000       0.00000000       0.00000000       0.33648828
Er       0.00000000       0.00000000       5.00060606       0.00000000       0.00000000      -0.33648828
2
Properties=species:S:1:pos:R:3:forces:R:3 energy=-6.243673939721373 pbc="F F F"
Er       0.00000000       0.00000000       0.00000000       0.00000000       0.00000000       0.31521127
Er       0.00000000       0.00000000       5.05939394       0.00000000       0.00000000      -0.31521127
2
Properties=species:S:1:pos:R:3:forces:R:3 energy=-6.225968013110955 pbc="F F F"
Er       0.00000000       0.00000000       0.00000000       0.00000000       0.00000000       0.28604323
Er       0.00000000       0.00000000       5.11818182       0.00000000       0.00000000      -0.28604323
2
Properties=species:S:1:pos:R:3:forces:R:3 energy=-6.2101407569339555 pbc="F F F"
Er       0.00000000       0.00000000       0.00000000       0.00000000       0.00000000       0.25196403
Er       0.00000000       0.00000000       5.17696970       0.00000000       0.00000000      -0.25196403
2
Properties=species:S:1:pos:R:3:forces:R:3 energy=-6.196345450370967 pbc="F F F"
Er       0.00000000       0.00000000       0.00000000       0.00000000       0.00000000       0.21773362
Er       0.00000000       0.00000000       5.23575758       0.00000000       0.00000000      -0.21773362
2
Properties=species:S:1:pos:R:3:forces:R:3 energy=-6.184479971619465 pbc="F F F"
Er       0.00000000       0.00000000       0.00000000       0.00000000       0.00000000       0.18639942
Er       0.00000000       0.00000000       5.29454545       0.00000000       0.00000000      -0.18639942
2
Properties=species:S:1:pos:R:3:forces:R:3 energy=-6.174421026308803 pbc="F F F"
Er       0.00000000       0.00000000       0.00000000       0.00000000       0.00000000       0.15533145
Er       0.00000000       0.00000000       5.35333333       0.00000000       0.00000000      -0.15533145
2
Properties=species:S:1:pos:R:3:forces:R:3 energy=-6.166312036766519 pbc="F F F"
Er       0.00000000       0.00000000       0.00000000       0.00000000       0.00000000       0.11989488
Er       0.00000000       0.00000000       5.41212121       0.00000000       0.00000000      -0.11989488
2
Properties=species:S:1:pos:R:3:forces:R:3 energy=-6.160274465468299 pbc="F F F"
Er       0.00000000       0.00000000       0.00000000       0.00000000       0.00000000       0.08739221
Er       0.00000000       0.00000000       5.47090909       0.00000000       0.00000000      -0.08739221
2
Properties=species:S:1:pos:R:3:forces:R:3 energy=-6.155703564569171 pbc="F F F"
Er       0.00000000       0.00000000       0.00000000       0.00000000       0.00000000       0.07091681
Er       0.00000000       0.00000000       5.52969697       0.00000000       0.00000000      -0.07091681
2
Properties=species:S:1:pos:R:3:forces:R:3 energy=-6.151733648592676 pbc="F F F"
Er       0.00000000       0.00000000       0.00000000       0.00000000       0.00000000       0.06476332
Er       0.00000000       0.00000000       5.58848485       0.00000000       0.00000000      -0.06476332
2
Properties=species:S:1:pos:R:3:forces:R:3 energy=-6.148057205633992 pbc="F F F"
Er       0.00000000       0.00000000       0.00000000       0.00000000       0.00000000       0.06100807
Er       0.00000000       0.00000000       5.64727273       0.00000000       0.00000000      -0.06100807
2
Properties=species:S:1:pos:R:3:forces:R:3 energy=-6.144358790282839 pbc="F F F"
Er       0.00000000       0.00000000       0.00000000       0.00000000       0.00000000       0.06753898
Er       0.00000000       0.00000000       5.70606061       0.00000000       0.00000000      -0.06753898
2
Properties=species:S:1:pos:R:3:forces:R:3 energy=-6.1397914912698175 pbc="F F F"
Er       0.00000000       0.00000000       0.00000000       0.00000000       0.00000000       0.08906293
Er       0.00000000       0.00000000       5.76484848       0.00000000       0.00000000      -0.08906293
2
Properties=species:S:1:pos:R:3:forces:R:3 energy=-6.134073053380229 pbc="F F F"
Er       0.00000000       0.00000000       0.00000000       0.00000000       0.00000000       0.10096933
Er       0.00000000       0.00000000       5.82363636       0.00000000       0.00000000      -0.10096933
2
Properties=species:S:1:pos:R:3:forces:R:3 energy=-6.1286111466231725 pbc="F F F"
Er       0.00000000       0.00000000       0.00000000       0.00000000       0.00000000       0.08038068
Er       0.00000000       0.00000000       5.88242424       0.00000000       0.00000000      -0.08038068
2
Properties=species:S:1:pos:R:3:forces:R:3 energy=-6.124877408542869 pbc="F F F"
Er       0.00000000       0.00000000       0.00000000       0.00000000       0.00000000       0.04719994
Er       0.00000000       0.00000000       5.94121212       0.00000000       0.00000000      -0.04719994
2
Properties=species:S:1:pos:R:3:forces:R:3 energy=-6.122682136506508 pbc="F F F"
Er       0.00000000       0.00000000       0.00000000       0.00000000       0.00000000       0.03216203
Er       0.00000000       0.00000000       6.00000000       0.00000000       0.00000000      -0.03216203
