2
Properties=species:S:1:pos:R:3:forces:R:3 energy=13171.538655975146 pbc="F F F"
Er       0.00000000       0.00000000       0.00000000       0.00000000       0.00000000 -229006.70312500
Er       0.00000000       0.00000000       0.18000000       0.00000000       0.00000000  229006.70312500
2
Properties=species:S:1:pos:R:3:forces:R:3 energy=5142.649984100146 pbc="F F F"
Er       0.00000000       0.00000000       0.00000000       0.00000000       0.00000000  -76329.51562500
Er       0.00000000       0.00000000       0.23878788       0.00000000       0.00000000   76329.51562500
2
Properties=species:S:1:pos:R:3:forces:R:3 energy=2258.114339568896 pbc="F F F"
Er       0.00000000       0.00000000       0.00000000       0.00000000       0.00000000  -29943.98632812
Er       0.00000000       0.00000000       0.29757576       0.00000000       0.00000000   29943.98632812
2
Properties=species:S:1:pos:R:3:forces:R:3 energy=1072.532796600146 pbc="F F F"
Er       0.00000000       0.00000000       0.00000000       0.00000000       0.00000000  -12997.21582031
Er       0.00000000       0.00000000       0.35636364       0.00000000       0.00000000   12997.21582031
2
Properties=species:S:1:pos:R:3:forces:R:3 energy=540.7276208315673 pbc="F F F"
Er       0.00000000       0.00000000       0.00000000       0.00000000       0.00000000   -6063.02539062
Er       0.00000000       0.00000000       0.41515152       0.00000000       0.00000000    6063.02539062
2
Properties=species:S:1:pos:R:3:forces:R:3 energy=286.03014158352045 pbc="F F F"
Er       0.00000000       0.00000000       0.00000000       0.00000000       0.00000000   -2997.37231445
Er       0.00000000       0.00000000       0.47393939       0.00000000       0.00000000    2997.37231445
2
Properties=species:S:1:pos:R:3:forces:R:3 energy=157.21497132077707 pbc="F F F"
Er       0.00000000       0.00000000       0.00000000       0.00000000       0.00000000   -1557.94482422
Er       0.00000000       0.00000000       0.53272727       0.00000000       0.00000000    1557.94482422
2
Properties=species:S:1:pos:R:3:forces:R:3 energy=88.89629916594387 pbc="F F F"
Er       0.00000000       0.00000000       0.00000000       0.00000000       0.00000000    -846.17712402
Er       0.00000000       0.00000000       0.59151515       0.00000000       0.00000000     846.17712402
2
Properties=species:S:1:pos:R:3:forces:R:3 energy=51.13154014023704 pbc="F F F"
Er       0.00000000       0.00000000       0.00000000       0.00000000       0.00000000    -477.30569458
Er       0.00000000       0.00000000       0.65030303       0.00000000       0.00000000     477.30569458
2
Properties=species:S:1:pos:R:3:forces:R:3 energy=29.51437369709973 pbc="F F F"
Er       0.00000000       0.00000000       0.00000000       0.00000000       0.00000000    -277.72958374
Er       0.00000000       0.00000000       0.70909091       0.00000000       0.00000000     277.72958374
2
Properties=species:S:1:pos:R:3:forces:R:3 energy=16.79097940454914 pbc="F F F"
Er       0.00000000       0.00000000       0.00000000       0.00000000       0.00000000    -165.49490356
Er       0.00000000       0.00000000       0.76787879       0.00000000       0.00000000     165.49490356
2
Properties=species:S:1:pos:R:3:forces:R:3 energy=9.146934693177261 pbc="F F F"
Er       0.00000000       0.00000000       0.00000000       0.00000000       0.00000000    -100.27448273
Er       0.00000000       0.00000000       0.82666667       0.00000000       0.00000000     100.27448273
2
Properties=species:S:1:pos:R:3:forces:R:3 energy=4.490263874049762 pbc="F F F"
Er       0.00000000       0.00000000       0.00000000       0.00000000       0.00000000     -61.42714310
Er       0.00000000       0.00000000       0.88545455       0.00000000       0.00000000      61.42714310
2
Properties=species:S:1:pos:R:3:forces:R:3 energy=1.6261093751581488 pbc="F F F"
Er       0.00000000       0.00000000       0.00000000       0.00000000       0.00000000     -37.96637344
Er       0.00000000       0.00000000       0.94424242       0.00000000       0.00000000      37.96637344
2
Properties=species:S:1:pos:R:3:forces:R:3 energy=-0.15460993842682863 pbc="F F F"
Er       0.00000000       0.00000000       0.00000000       0.00000000       0.00000000     -23.82260323
Er       0.00000000       0.00000000       1.00303030       0.00000000       0.00000000      23.82260323
2
Properties=species:S:1:pos:R:3:forces:R:3 energy=-1.2882701488519968 pbc="F F F"
Er       0.00000000       0.00000000       0.00000000       0.00000000       0.00000000     -15.50157738
Er       0.00000000       0.00000000       1.06181818       0.00000000       0.00000000      15.50157738
2
Properties=species:S:1:pos:R:3:forces:R:3 energy=-2.0433705544792726 pbc="F F F"
Er       0.00000000       0.00000000       0.00000000       0.00000000       0.00000000     -10.55219078
Er       0.00000000       0.00000000       1.12060606       0.00000000       0.00000000      10.55219078
2
Properties=species:S:1:pos:R:3:forces:R:3 energy=-2.552772280027504 pbc="F F F"
Er       0.00000000       0.00000000       0.00000000       0.00000000       0.00000000      -6.89315462
Er       0.00000000       0.00000000       1.17939394       0.00000000       0.00000000       6.89315462
2
Properties=species:S:1:pos:R:3:forces:R:3 energy=-2.8700843695643945 pbc="F F F"
Er       0.00000000       0.00000000       0.00000000       0.00000000       0.00000000      -4.07658672
Er       0.00000000       0.00000000       1.23818182       0.00000000       0.00000000       4.07658672
2
Properties=species:S:1:pos:R:3:forces:R:3 energy=-3.0519865107230517 pbc="F F F"
Er       0.00000000       0.00000000       0.00000000       0.00000000       0.00000000      -2.25619292
Er       0.00000000       0.00000000       1.29696970       0.00000000       0.00000000       2.25619292
2
Properties=species:S:1:pos:R:3:forces:R:3 energy=-3.1500385272125113 pbc="F F F"
Er       0.00000000       0.00000000       0.00000000       0.00000000       0.00000000      -1.19661665
Er       0.00000000       0.00000000       1.35575758       0.00000000       0.00000000       1.19661665
2
Properties=species:S:1:pos:R:3:forces:R:3 energy=-3.2065376809437156 pbc="F F F"
Er       0.00000000       0.00000000       0.00000000       0.00000000       0.00000000      -0.84250820
Er       0.00000000       0.00000000       1.41454545       0.00000000       0.00000000       0.84250820
2
Properties=species:S:1:pos:R:3:forces:R:3 energy=-3.2616393066555345 pbc="F F F"
Er       0.00000000       0.00000000       0.00000000       0.00000000       0.00000000      -1.12044060
Er       0.00000000       0.00000000       1.47333333       0.00000000       0.00000000       1.12044060
2
Properties=species:S:1:pos:R:3:forces:R:3 energy=-3.344918349103027 pbc="F F F"
Er       0.00000000       0.00000000       0.00000000       0.00000000       0.00000000      -1.72799873
Er       0.00000000       0.00000000       1.53212121       0.00000000       0.00000000       1.72799873
2
Properties=species:S:1:pos:R:3:forces:R:3 energy=-3.4609902521887124 pbc="F F F"
Er       0.00000000       0.00000000       0.00000000       0.00000000       0.00000000      -2.15013170
Er       0.00000000       0.00000000       1.59090909       0.00000000       0.00000000       2.15013170
2
Properties=species:S:1:pos:R:3:forces:R:3 energy=-3.589870806290259 pbc="F F F"
Er       0.00000000       0.00000000       0.00000000       0.00000000       0.00000000      -2.20317888
Er       0.00000000       0.00000000       1.64969697       0.00000000       0.00000000       2.20317888
2
Properties=species:S:1:pos:R:3:forces:R:3 energy=-3.7216595278550115 pbc="F F F"
Er       0.00000000       0.00000000       0.00000000       0.00000000       0.00000000      -2.31942534
Er       0.00000000       0.00000000       1.70848485       0.00000000       0.00000000       2.31942534
2
Properties=species:S:1:pos:R:3:forces:R:3 energy=-3.8662014329339063 pbc="F F F"
Er       0.00000000       0.00000000       0.00000000       0.00000000       0.00000000      -2.60950494
Er       0.00000000       0.00000000       1.76727273       0.00000000       0.00000000       2.60950494
2
Properties=species:S:1:pos:R:3:forces:R:3 energy=-4.0274817110833 pbc="F F F"
Er       0.00000000       0.00000000       0.00000000       0.00000000       0.00000000      -2.85419798
Er       0.00000000       0.00000000       1.82606061       0.00000000       0.00000000       2.85419798
2
Properties=species:S:1:pos:R:3:forces:R:3 energy=-4.198474854354323 pbc="F F F"
Er       0.00000000       0.00000000       0.00000000       0.00000000       0.00000000      -2.93606830
Er       0.00000000       0.00000000       1.88484848       0.00000000       0.00000000       2.93606830
2
Properties=species:S:1:pos:R:3:forces:R:3 energy=-4.370368369533879 pbc="F F F"
Er       0.00000000       0.00000000       0.00000000       0.00000000       0.00000000      -2.90083480
Er       0.00000000       0.00000000       1.94363636       0.00000000       0.00000000       2.90083480
2
Properties=species:S:1:pos:R:3:forces:R:3 energy=-4.539203212409773 pbc="F F F"
Er       0.00000000       0.00000000       0.00000000       0.00000000       0.00000000      -2.84639287
Er       0.00000000       0.00000000       2.00242424       0.00000000       0.00000000       2.84639287
2
Properties=species:S:1:pos:R:3:forces:R:3 energy=-4.705806327984118 pbc="F F F"
Er       0.00000000       0.00000000       0.00000000       0.00000000       0.00000000      -2.82937264
Er       0.00000000       0.00000000       2.06121212       0.00000000       0.00000000       2.82937264
2
Properties=species:S:1:pos:R:3:forces:R:3 energy=-4.872637790512006 pbc="F F F"
Er       0.00000000       0.00000000       0.00000000       0.00000000       0.00000000      -2.85036349
Er       0.00000000       0.00000000       2.12000000       0.00000000       0.00000000       2.85036349
2
Properties=species:S:1:pos:R:3:forces:R:3 energy=-5.040966471670898 pbc="F F F"
Er       0.00000000       0.00000000       0.00000000       0.00000000       0.00000000      -2.87240601
Er       0.00000000       0.00000000       2.17878788       0.00000000       0.00000000       2.87240601
2
Properties=species:S:1:pos:R:3:forces:R:3 energy=-5.209497753904463 pbc="F F F"
Er       0.00000000       0.00000000       0.00000000       0.00000000       0.00000000      -2.85098672
Er       0.00000000       0.00000000       2.23757576       0.00000000       0.00000000       2.85098672
2
Properties=species:S:1:pos:R:3:forces:R:3 energy=-5.3747997341429965 pbc="F F F"
Er       0.00000000       0.00000000       0.00000000       0.00000000       0.00000000      -2.76037264
Er       0.00000000       0.00000000       2.29636364       0.00000000       0.00000000       2.76037264
2
Properties=species:S:1:pos:R:3:forces:R:3 energy=-5.532613648341891 pbc="F F F"
Er       0.00000000       0.00000000       0.00000000       0.00000000       0.00000000      -2.59682083
Er       0.00000000       0.00000000       2.35515152       0.00000000       0.00000000       2.59682083
2
Properties=species:S:1:pos:R:3:forces:R:3 energy=-5.678871868129249 pbc="F F F"
Er       0.00000000       0.00000000       0.00000000       0.00000000       0.00000000      -2.36966252
Er       0.00000000       0.00000000       2.41393939       0.00000000       0.00000000       2.36966252
2
Properties=species:S:1:pos:R:3:forces:R:3 energy=-5.810339761634689 pbc="F F F"
Er       0.00000000       0.00000000       0.00000000       0.00000000       0.00000000      -2.09750438
Er       0.00000000       0.00000000       2.47272727       0.00000000       0.00000000       2.09750438
2
Properties=species:S:1:pos:R:3:forces:R:3 energy=-5.925137855520148 pbc="F F F"
Er       0.00000000       0.00000000       0.00000000       0.00000000       0.00000000      -1.80761659
Er       0.00000000       0.00000000       2.53151515       0.00000000       0.00000000       1.80761659
2
Properties=species:S:1:pos:R:3:forces:R:3 energy=-6.023133917165017 pbc="F F F"
Er       0.00000000       0.00000000       0.00000000       0.00000000       0.00000000      -1.53093576
Er       0.00000000       0.00000000       2.59030303       0.00000000       0.00000000       1.53093576
2
Properties=species:S:1:pos:R:3:forces:R:3 energy=-6.105914602534214 pbc="F F F"
Er       0.00000000       0.00000000       0.00000000       0.00000000       0.00000000      -1.29347289
Er       0.00000000       0.00000000       2.64909091       0.00000000       0.00000000       1.29347289
2
Properties=species:S:1:pos:R:3:forces:R:3 energy=-6.176276539545695 pbc="F F F"
Er       0.00000000       0.00000000       0.00000000       0.00000000       0.00000000      -1.10974085
Er       0.00000000       0.00000000       2.70787879       0.00000000       0.00000000       1.10974085
2
Properties=species:S:1:pos:R:3:forces:R:3 energy=-6.237471330122265 pbc="F F F"
Er       0.00000000       0.00000000       0.00000000       0.00000000       0.00000000      -0.98060495
Er       0.00000000       0.00000000       2.76666667       0.00000000       0.00000000       0.98060495
2
Properties=species:S:1:pos:R:3:forces:R:3 energy=-6.292424672996291 pbc="F F F"
Er       0.00000000       0.00000000       0.00000000       0.00000000       0.00000000      -0.89461064
Er       0.00000000       0.00000000       2.82545455       0.00000000       0.00000000       0.89461064
2
Properties=species:S:1:pos:R:3:forces:R:3 energy=-6.343116711486711 pbc="F F F"
Er       0.00000000       0.00000000       0.00000000       0.00000000       0.00000000      -0.83206064
Er       0.00000000       0.00000000       2.88424242       0.00000000       0.00000000       0.83206064
2
Properties=species:S:1:pos:R:3:forces:R:3 energy=-6.390291196174587 pbc="F F F"
Er       0.00000000       0.00000000       0.00000000       0.00000000       0.00000000      -0.77159327
Er       0.00000000       0.00000000       2.94303030       0.00000000       0.00000000       0.77159327
2
Properties=species:S:1:pos:R:3:forces:R:3 energy=-6.433564748640588 pbc="F F F"
Er       0.00000000       0.00000000       0.00000000       0.00000000       0.00000000      -0.69757938
Er       0.00000000       0.00000000       3.00181818       0.00000000       0.00000000       0.69757938
2
Properties=species:S:1:pos:R:3:forces:R:3 energy=-6.471939722835309 pbc="F F F"
Er       0.00000000       0.00000000       0.00000000       0.00000000       0.00000000      -0.60510761
Er       0.00000000       0.00000000       3.06060606       0.00000000       0.00000000       0.60510761
2
Properties=species:S:1:pos:R:3:forces:R:3 energy=-6.5044592019366 pbc="F F F"
Er       0.00000000       0.00000000       0.00000000       0.00000000       0.00000000      -0.50005156
Er       0.00000000       0.00000000       3.11939394       0.00000000       0.00000000       0.50005156
2
Properties=species:S:1:pos:R:3:forces:R:3 energy=-6.530726953592626 pbc="F F F"
Er       0.00000000       0.00000000       0.00000000       0.00000000       0.00000000      -0.39463544
Er       0.00000000       0.00000000       3.17818182       0.00000000       0.00000000       0.39463544
2
Properties=species:S:1:pos:R:3:forces:R:3 energy=-6.551099950092705 pbc="F F F"
Er       0.00000000       0.00000000       0.00000000       0.00000000       0.00000000      -0.30127257
Er       0.00000000       0.00000000       3.23696970       0.00000000       0.00000000       0.30127257
2
Properties=species:S:1:pos:R:3:forces:R:3 energy=-6.56654235815426 pbc="F F F"
Er       0.00000000       0.00000000       0.00000000       0.00000000       0.00000000      -0.22774231
Er       0.00000000       0.00000000       3.29575758       0.00000000       0.00000000       0.22774231
2
Properties=species:S:1:pos:R:3:forces:R:3 energy=-6.578293020040935 pbc="F F F"
Er       0.00000000       0.00000000       0.00000000       0.00000000       0.00000000      -0.17533909
Er       0.00000000       0.00000000       3.35454545       0.00000000       0.00000000       0.17533909
2
Properties=species:S:1:pos:R:3:forces:R:3 energy=-6.587493123097443 pbc="F F F"
Er       0.00000000       0.00000000       0.00000000       0.00000000       0.00000000      -0.13993609
Er       0.00000000       0.00000000       3.41333333       0.00000000       0.00000000       0.13993609
2
Properties=species:S:1:pos:R:3:forces:R:3 energy=-6.5949459625208515 pbc="F F F"
Er       0.00000000       0.00000000       0.00000000       0.00000000       0.00000000      -0.11472845
Er       0.00000000       0.00000000       3.47212121       0.00000000       0.00000000       0.11472845
2
Properties=species:S:1:pos:R:3:forces:R:3 energy=-6.60105280109923 pbc="F F F"
Er       0.00000000       0.00000000       0.00000000       0.00000000       0.00000000      -0.09320025
Er       0.00000000       0.00000000       3.53090909       0.00000000       0.00000000       0.09320025
2
Properties=species:S:1:pos:R:3:forces:R:3 energy=-6.60589155067042 pbc="F F F"
Er       0.00000000       0.00000000       0.00000000       0.00000000       0.00000000      -0.07112735
Er       0.00000000       0.00000000       3.58969697       0.00000000       0.00000000       0.07112735
2
Properties=species:S:1:pos:R:3:forces:R:3 energy=-6.609374863318987 pbc="F F F"
Er       0.00000000       0.00000000       0.00000000       0.00000000       0.00000000      -0.04703861
Er       0.00000000       0.00000000       3.64848485       0.00000000       0.00000000       0.04703861
2
Properties=species:S:1:pos:R:3:forces:R:3 energy=-6.611388561535749 pbc="F F F"
Er       0.00000000       0.00000000       0.00000000       0.00000000       0.00000000      -0.02124881
Er       0.00000000       0.00000000       3.70727273       0.00000000       0.00000000       0.02124881
2
Properties=species:S:1:pos:R:3:forces:R:3 energy=-6.611851356904154 pbc="F F F"
Er       0.00000000       0.00000000       0.00000000       0.00000000       0.00000000       0.00567858
Er       0.00000000       0.00000000       3.76606061       0.00000000       0.00000000      -0.00567858
2
Properties=species:S:1:pos:R:3:forces:R:3 energy=-6.610693335407357 pbc="F F F"
Er       0.00000000       0.00000000       0.00000000       0.00000000       0.00000000       0.03406135
Er       0.00000000       0.00000000       3.82484848       0.00000000       0.00000000      -0.03406135
2
Properties=species:S:1:pos:R:3:forces:R:3 energy=-6.6077935867951645 pbc="F F F"
Er       0.00000000       0.00000000       0.00000000       0.00000000       0.00000000       0.06517564
Er       0.00000000       0.00000000       3.88363636       0.00000000       0.00000000      -0.06517564
2
Properties=species:S:1:pos:R:3:forces:R:3 energy=-6.602947754314696 pbc="F F F"
Er       0.00000000       0.00000000       0.00000000       0.00000000       0.00000000       0.10047014
Er       0.00000000       0.00000000       3.94242424       0.00000000       0.00000000      -0.10047014
2
Properties=species:S:1:pos:R:3:forces:R:3 energy=-6.59588531488968 pbc="F F F"
Er       0.00000000       0.00000000       0.00000000       0.00000000       0.00000000       0.14058790
Er       0.00000000       0.00000000       4.00121212       0.00000000       0.00000000      -0.14058790
2
Properties=species:S:1:pos:R:3:forces:R:3 energy=-6.5863376717994075 pbc="F F F"
Er       0.00000000       0.00000000       0.00000000       0.00000000       0.00000000       0.18475187
Er       0.00000000       0.00000000       4.06000000       0.00000000       0.00000000      -0.18475187
2
Properties=species:S:1:pos:R:3:forces:R:3 energy=-6.574126534279757 pbc="F F F"
Er       0.00000000       0.00000000       0.00000000       0.00000000       0.00000000       0.23074019
Er       0.00000000       0.00000000       4.11878788       0.00000000       0.00000000      -0.23074019
2
Properties=species:S:1:pos:R:3:forces:R:3 energy=-6.559234896567677 pbc="F F F"
Er       0.00000000       0.00000000       0.00000000       0.00000000       0.00000000       0.27535689
Er       0.00000000       0.00000000       4.17757576       0.00000000       0.00000000      -0.27535689
2
Properties=species:S:1:pos:R:3:forces:R:3 energy=-6.541845311586727 pbc="F F F"
Er       0.00000000       0.00000000       0.00000000       0.00000000       0.00000000       0.31516683
Er       0.00000000       0.00000000       4.23636364       0.00000000       0.00000000      -0.31516683
2
Properties=species:S:1:pos:R:3:forces:R:3 energy=-6.522330316190049 pbc="F F F"
Er       0.00000000       0.00000000       0.00000000       0.00000000       0.00000000       0.34726435
Er       0.00000000       0.00000000       4.29515152       0.00000000       0.00000000      -0.34726435
2
Properties=species:S:1:pos:R:3:forces:R:3 energy=-6.501203036500889 pbc="F F F"
Er       0.00000000       0.00000000       0.00000000       0.00000000       0.00000000       0.36986995
Er       0.00000000       0.00000000       4.35393939       0.00000000       0.00000000      -0.36986995
2
Properties=species:S:1:pos:R:3:forces:R:3 energy=-6.47903643137046 pbc="F F F"
Er       0.00000000       0.00000000       0.00000000       0.00000000       0.00000000       0.38265797
Er       0.00000000       0.00000000       4.41272727       0.00000000       0.00000000      -0.38265797
2
Properties=species:S:1:pos:R:3:forces:R:3 energy=-6.456382407459094 pbc="F F F"
Er       0.00000000       0.00000000       0.00000000       0.00000000       0.00000000       0.38675073
Er       0.00000000       0.00000000       4.47151515       0.00000000       0.00000000      -0.38675073
2
Properties=species:S:1:pos:R:3:forces:R:3 energy=-6.4336898856084 pbc="F F F"
Er       0.00000000       0.00000000       0.00000000       0.00000000       0.00000000       0.38441265
Er       0.00000000       0.00000000       4.53030303       0.00000000       0.00000000      -0.38441265
2
Properties=species:S:1:pos:R:3:forces:R:3 energy=-6.411255114742155 pbc="F F F"
Er       0.00000000       0.00000000       0.00000000       0.00000000       0.00000000       0.37848407
Er       0.00000000       0.00000000       4.58909091       0.00000000       0.00000000      -0.37848407
2
Properties=species:S:1:pos:R:3:forces:R:3 energy=-6.389206100966826 pbc="F F F"
Er       0.00000000       0.00000000       0.00000000       0.00000000       0.00000000       0.37170461
Er       0.00000000       0.00000000       4.64787879       0.00000000       0.00000000      -0.37170461
2
Properties=species:S:1:pos:R:3:forces:R:3 energy=-6.367528795601411 pbc="F F F"
Er       0.00000000       0.00000000       0.00000000       0.00000000       0.00000000       0.36604667
Er       0.00000000       0.00000000       4.70666667       0.00000000       0.00000000      -0.36604667
2
Properties=species:S:1:pos:R:3:forces:R:3 energy=-6.346130056689254 pbc="F F F"
Er       0.00000000       0.00000000       0.00000000       0.00000000       0.00000000       0.36226252
Er       0.00000000       0.00000000       4.76545455       0.00000000       0.00000000      -0.36226252
2
Properties=species:S:1:pos:R:3:forces:R:3 energy=-6.324910210609465 pbc="F F F"
Er       0.00000000       0.00000000       0.00000000       0.00000000       0.00000000       0.35968906
Er       0.00000000       0.00000000       4.82424242       0.00000000       0.00000000      -0.35968906
2
Properties=species:S:1:pos:R:3:forces:R:3 energy=-6.303853600451829 pbc="F F F"
Er       0.00000000       0.00000000       0.00000000       0.00000000       0.00000000       0.35639045
Er       0.00000000       0.00000000       4.88303030       0.00000000       0.00000000      -0.35639045
2
Properties=species:S:1:pos:R:3:forces:R:3 energy=-6.283076244390043 pbc="F F F"
Er       0.00000000       0.00000000       0.00000000       0.00000000       0.00000000       0.34960100
Er       0.00000000       0.00000000       4.94181818       0.00000000       0.00000000      -0.34960100
2
Properties=species:S:1:pos:R:3:forces:R:3 energy=-6.262871599377621 pbc="F F F"
Er       0.00000000       0.00000000       0.00000000       0.00000000       0.00000000       0.33648661
Er       0.00000000       0.00000000       5.00060606       0.00000000       0.00000000      -0.33648661
2
Properties=species:S:1:pos:R:3:forces:R:3 energy=-6.243673939721373 pbc="F F F"
Er       0.00000000       0.00000000       0.00000000       0.00000000       0.00000000       0.31521142
Er       0.00000000       0.00000000       5.05939394       0.00000000       0.00000000      -0.31521142
2
Properties=species:S:1:pos:R:3:forces:R:3 energy=-6.2259670594366385 pbc="F F F"
Er       0.00000000       0.00000000       0.00000000       0.00000000       0.00000000       0.28604031
Er       0.00000000       0.00000000       5.11818182       0.00000000       0.00000000      -0.28604031
2
Properties=species:S:1:pos:R:3:forces:R:3 energy=-6.210140775940888 pbc="F F F"
Er       0.00000000       0.00000000       0.00000000       0.00000000       0.00000000       0.25196382
Er       0.00000000       0.00000000       5.17696970       0.00000000       0.00000000      -0.25196382
2
Properties=species:S:1:pos:R:3:forces:R:3 energy=-6.196345450370967 pbc="F F F"
Er       0.00000000       0.00000000       0.00000000       0.00000000       0.00000000       0.21773221
Er       0.00000000       0.00000000       5.23575758       0.00000000       0.00000000      -0.21773221
2
Properties=species:S:1:pos:R:3:forces:R:3 energy=-6.184480448456624 pbc="F F F"
Er       0.00000000       0.00000000       0.00000000       0.00000000       0.00000000       0.18639944
Er       0.00000000       0.00000000       5.29454545       0.00000000       0.00000000      -0.18639944
2
Properties=species:S:1:pos:R:3:forces:R:3 energy=-6.174421038980092 pbc="F F F"
Er       0.00000000       0.00000000       0.00000000       0.00000000       0.00000000       0.15533128
Er       0.00000000       0.00000000       5.35333333       0.00000000       0.00000000      -0.15533128
2
Properties=species:S:1:pos:R:3:forces:R:3 energy=-6.166311559929361 pbc="F F F"
Er       0.00000000       0.00000000       0.00000000       0.00000000       0.00000000       0.11989127
Er       0.00000000       0.00000000       5.41212121       0.00000000       0.00000000      -0.11989127
2
Properties=species:S:1:pos:R:3:forces:R:3 energy=-6.160274465468299 pbc="F F F"
Er       0.00000000       0.00000000       0.00000000       0.00000000       0.00000000       0.08739199
Er       0.00000000       0.00000000       5.47090909       0.00000000       0.00000000      -0.08739199
2
Properties=species:S:1:pos:R:3:forces:R:3 energy=-6.15570357724046 pbc="F F F"
Er       0.00000000       0.00000000       0.00000000       0.00000000       0.00000000       0.07091580
Er       0.00000000       0.00000000       5.52969697       0.00000000       0.00000000      -0.07091580
2
Properties=species:S:1:pos:R:3:forces:R:3 energy=-6.151733648592676 pbc="F F F"
Er       0.00000000       0.00000000       0.00000000       0.00000000       0.00000000       0.06476332
Er       0.00000000       0.00000000       5.58848485       0.00000000       0.00000000      -0.06476332
2
Properties=species:S:1:pos:R:3:forces:R:3 energy=-6.148056251959676 pbc="F F F"
Er       0.00000000       0.00000000       0.00000000       0.00000000       0.00000000       0.06101157
Er       0.00000000       0.00000000       5.64727273       0.00000000       0.00000000      -0.06101157
2
Properties=species:S:1:pos:R:3:forces:R:3 energy=-6.144358809289772 pbc="F F F"
Er       0.00000000       0.00000000       0.00000000       0.00000000       0.00000000       0.06754006
Er       0.00000000       0.00000000       5.70606061       0.00000000       0.00000000      -0.06754006
2
Properties=species:S:1:pos:R:3:forces:R:3 energy=-6.1397914912698175 pbc="F F F"
Er       0.00000000       0.00000000       0.00000000       0.00000000       0.00000000       0.08906272
Er       0.00000000       0.00000000       5.76484848       0.00000000       0.00000000      -0.08906272
2
Properties=species:S:1:pos:R:3:forces:R:3 energy=-6.134077821751811 pbc="F F F"
Er       0.00000000       0.00000000       0.00000000       0.00000000       0.00000000       0.10093585
Er       0.00000000       0.00000000       5.82363636       0.00000000       0.00000000      -0.10093585
2
Properties=species:S:1:pos:R:3:forces:R:3 energy=-6.128611159294461 pbc="F F F"
Er       0.00000000       0.00000000       0.00000000       0.00000000       0.00000000       0.08038563
Er       0.00000000       0.00000000       5.88242424       0.00000000       0.00000000      -0.08038563
2
Properties=species:S:1:pos:R:3:forces:R:3 energy=-6.124877408542869 pbc="F F F"
Er       0.00000000       0.00000000       0.00000000       0.00000000       0.00000000       0.04720689
Er       0.00000000       0.00000000       5.94121212       0.00000000       0.00000000      -0.04720689
2
Properties=species:S:1:pos:R:3:forces:R:3 energy=-6.122682136506508 pbc="F F F"
Er       0.00000000       0.00000000       0.00000000       0.00000000       0.00000000       0.03216203
Er       0.00000000       0.00000000       6.00000000       0.00000000       0.00000000      -0.03216203
