2
Properties=species:S:1:pos:R:3:forces:R:3 energy=3223.2805857906487 pbc="F F F"
F        0.00000000       0.00000000       0.00000000       0.00000000       0.00000000  -50189.08984375
F        0.00000000       0.00000000       0.10000000       0.00000000       0.00000000   50189.08984375
2
Properties=species:S:1:pos:R:3:forces:R:3 energy=1619.5403514156487 pbc="F F F"
F        0.00000000       0.00000000       0.00000000       0.00000000       0.00000000  -13347.75195312
F        0.00000000       0.00000000       0.15959596       0.00000000       0.00000000   13347.75195312
2
Properties=species:S:1:pos:R:3:forces:R:3 energy=1139.6605906734612 pbc="F F F"
F        0.00000000       0.00000000       0.00000000       0.00000000       0.00000000   -4506.35253906
F        0.00000000       0.00000000       0.21919192       0.00000000       0.00000000    4506.35253906
2
Properties=species:S:1:pos:R:3:forces:R:3 energy=977.4329905769929 pbc="F F F"
F        0.00000000       0.00000000       0.00000000       0.00000000       0.00000000   -1458.29089355
F        0.00000000       0.00000000       0.27878788       0.00000000       0.00000000    1458.29089355
2
Properties=species:S:1:pos:R:3:forces:R:3 energy=918.9905467321086 pbc="F F F"
F        0.00000000       0.00000000       0.00000000       0.00000000       0.00000000   -1030.37768555
F        0.00000000       0.00000000       0.33838384       0.00000000       0.00000000    1030.37768555
2
Properties=species:S:1:pos:R:3:forces:R:3 energy=799.614509140788 pbc="F F F"
F        0.00000000       0.00000000       0.00000000       0.00000000       0.00000000   -2748.59912109
F        0.00000000       0.00000000       0.39797980       0.00000000       0.00000000    2748.59912109
2
Properties=species:S:1:pos:R:3:forces:R:3 energy=588.8296580808244 pbc="F F F"
F        0.00000000       0.00000000       0.00000000       0.00000000       0.00000000   -4220.47460938
F        0.00000000       0.00000000       0.45757576       0.00000000       0.00000000    4220.47460938
2
Properties=species:S:1:pos:R:3:forces:R:3 energy=343.6606822776727 pbc="F F F"
F        0.00000000       0.00000000       0.00000000       0.00000000       0.00000000   -3697.75708008
F        0.00000000       0.00000000       0.51717172       0.00000000       0.00000000    3697.75708008
2
Properties=species:S:1:pos:R:3:forces:R:3 energy=168.58751643203135 pbc="F F F"
F        0.00000000       0.00000000       0.00000000       0.00000000       0.00000000   -2095.97314453
F        0.00000000       0.00000000       0.57676768       0.00000000       0.00000000    2095.97314453
2
Properties=species:S:1:pos:R:3:forces:R:3 energy=85.0053250451297 pbc="F F F"
F        0.00000000       0.00000000       0.00000000       0.00000000       0.00000000    -874.99938965
F        0.00000000       0.00000000       0.63636364       0.00000000       0.00000000     874.99938965
2
Properties=species:S:1:pos:R:3:forces:R:3 energy=49.77339158046845 pbc="F F F"
F        0.00000000       0.00000000       0.00000000       0.00000000       0.00000000    -385.84234619
F        0.00000000       0.00000000       0.69595960       0.00000000       0.00000000     385.84234619
2
Properties=species:S:1:pos:R:3:forces:R:3 energy=32.922054345596 pbc="F F F"
F        0.00000000       0.00000000       0.00000000       0.00000000       0.00000000    -245.83685303
F        0.00000000       0.00000000       0.75555556       0.00000000       0.00000000     245.83685303
2
Properties=species:S:1:pos:R:3:forces:R:3 energy=20.328661315189752 pbc="F F F"
F        0.00000000       0.00000000       0.00000000       0.00000000       0.00000000    -163.46926880
F        0.00000000       0.00000000       0.81515152       0.00000000       0.00000000     163.46926880
2
Properties=species:S:1:pos:R:3:forces:R:3 energy=12.720634283466891 pbc="F F F"
F        0.00000000       0.00000000       0.00000000       0.00000000       0.00000000    -102.70653534
F        0.00000000       0.00000000       0.87474747       0.00000000       0.00000000     102.70653534
2
Properties=species:S:1:pos:R:3:forces:R:3 energy=7.43365616333847 pbc="F F F"
F        0.00000000       0.00000000       0.00000000       0.00000000       0.00000000     -75.94979858
F        0.00000000       0.00000000       0.93434343       0.00000000       0.00000000      75.94979858
2
Properties=species:S:1:pos:R:3:forces:R:3 energy=3.6398764280460316 pbc="F F F"
F        0.00000000       0.00000000       0.00000000       0.00000000       0.00000000     -51.98614120
F        0.00000000       0.00000000       0.99393939       0.00000000       0.00000000      51.98614120
2
Properties=species:S:1:pos:R:3:forces:R:3 energy=1.085608467329773 pbc="F F F"
F        0.00000000       0.00000000       0.00000000       0.00000000       0.00000000     -35.18329620
F        0.00000000       0.00000000       1.05353535       0.00000000       0.00000000      35.18329620
2
Properties=species:S:1:pos:R:3:forces:R:3 energy=-0.6847629264252012 pbc="F F F"
F        0.00000000       0.00000000       0.00000000       0.00000000       0.00000000     -24.93084145
F        0.00000000       0.00000000       1.11313131       0.00000000       0.00000000      24.93084145
2
Properties=species:S:1:pos:R:3:forces:R:3 energy=-1.9396524513950706 pbc="F F F"
F        0.00000000       0.00000000       0.00000000       0.00000000       0.00000000     -17.46659088
F        0.00000000       0.00000000       1.17272727       0.00000000       0.00000000      17.46659088
2
Properties=species:S:1:pos:R:3:forces:R:3 energy=-2.7925607141559636 pbc="F F F"
F        0.00000000       0.00000000       0.00000000       0.00000000       0.00000000     -11.35571957
F        0.00000000       0.00000000       1.23232323       0.00000000       0.00000000      11.35571957
2
Properties=species:S:1:pos:R:3:forces:R:3 energy=-3.3178871150708567 pbc="F F F"
F        0.00000000       0.00000000       0.00000000       0.00000000       0.00000000      -6.49197054
F        0.00000000       0.00000000       1.29191919       0.00000000       0.00000000       6.49197054
2
Properties=species:S:1:pos:R:3:forces:R:3 energy=-3.5920663205829486 pbc="F F F"
F        0.00000000       0.00000000       0.00000000       0.00000000       0.00000000      -2.90932965
F        0.00000000       0.00000000       1.35151515       0.00000000       0.00000000       2.90932965
2
Properties=species:S:1:pos:R:3:forces:R:3 energy=-3.6849919068342283 pbc="F F F"
F        0.00000000       0.00000000       0.00000000       0.00000000       0.00000000      -0.34752759
F        0.00000000       0.00000000       1.41111111       0.00000000       0.00000000       0.34752759
2
Properties=species:S:1:pos:R:3:forces:R:3 energy=-3.646474024513727 pbc="F F F"
F        0.00000000       0.00000000       0.00000000       0.00000000       0.00000000       1.55657232
F        0.00000000       0.00000000       1.47070707       0.00000000       0.00000000      -1.55657232
2
Properties=species:S:1:pos:R:3:forces:R:3 energy=-3.5067240281498226 pbc="F F F"
F        0.00000000       0.00000000       0.00000000       0.00000000       0.00000000       3.09643126
F        0.00000000       0.00000000       1.53030303       0.00000000       0.00000000      -3.09643126
2
Properties=species:S:1:pos:R:3:forces:R:3 energy=-3.2785812183022447 pbc="F F F"
F        0.00000000       0.00000000       0.00000000       0.00000000       0.00000000       4.57345438
F        0.00000000       0.00000000       1.58989899       0.00000000       0.00000000      -4.57345438
2
Properties=species:S:1:pos:R:3:forces:R:3 energy=-2.960511061832029 pbc="F F F"
F        0.00000000       0.00000000       0.00000000       0.00000000       0.00000000       6.07129478
F        0.00000000       0.00000000       1.64949495       0.00000000       0.00000000      -6.07129478
2
Properties=species:S:1:pos:R:3:forces:R:3 energy=-2.568465796893901 pbc="F F F"
F        0.00000000       0.00000000       0.00000000       0.00000000       0.00000000       6.88523531
F        0.00000000       0.00000000       1.70909091       0.00000000       0.00000000      -6.88523531
2
Properties=species:S:1:pos:R:3:forces:R:3 energy=-2.167809093538748 pbc="F F F"
F        0.00000000       0.00000000       0.00000000       0.00000000       0.00000000       6.34513855
F        0.00000000       0.00000000       1.76868687       0.00000000       0.00000000      -6.34513855
2
Properties=species:S:1:pos:R:3:forces:R:3 energy=-1.8288162013430542 pbc="F F F"
F        0.00000000       0.00000000       0.00000000       0.00000000       0.00000000       4.97702026
F        0.00000000       0.00000000       1.82828283       0.00000000       0.00000000      -4.97702026
2
Properties=species:S:1:pos:R:3:forces:R:3 energy=-1.5731737098959426 pbc="F F F"
F        0.00000000       0.00000000       0.00000000       0.00000000       0.00000000       3.65695477
F        0.00000000       0.00000000       1.88787879       0.00000000       0.00000000      -3.65695477
2
Properties=species:S:1:pos:R:3:forces:R:3 energy=-1.384956970695089 pbc="F F F"
F        0.00000000       0.00000000       0.00000000       0.00000000       0.00000000       2.72485852
F        0.00000000       0.00000000       1.94747475       0.00000000       0.00000000      -2.72485852
2
Properties=species:S:1:pos:R:3:forces:R:3 energy=-1.2420307601061493 pbc="F F F"
F        0.00000000       0.00000000       0.00000000       0.00000000       0.00000000       2.11124301
F        0.00000000       0.00000000       2.00707071       0.00000000       0.00000000      -2.11124301
2
Properties=species:S:1:pos:R:3:forces:R:3 energy=-1.1300260941720277 pbc="F F F"
F        0.00000000       0.00000000       0.00000000       0.00000000       0.00000000       1.66557932
F        0.00000000       0.00000000       2.06666667       0.00000000       0.00000000      -1.66557932
2
Properties=species:S:1:pos:R:3:forces:R:3 energy=-1.0420442897814048 pbc="F F F"
F        0.00000000       0.00000000       0.00000000       0.00000000       0.00000000       1.29585087
F        0.00000000       0.00000000       2.12626263       0.00000000       0.00000000      -1.29585087
2
Properties=species:S:1:pos:R:3:forces:R:3 energy=-0.9746568900709093 pbc="F F F"
F        0.00000000       0.00000000       0.00000000       0.00000000       0.00000000       0.97306275
F        0.00000000       0.00000000       2.18585859       0.00000000       0.00000000      -0.97306275
2
Properties=species:S:1:pos:R:3:forces:R:3 energy=-0.9251312849668648 pbc="F F F"
F        0.00000000       0.00000000       0.00000000       0.00000000       0.00000000       0.69721270
F        0.00000000       0.00000000       2.24545455       0.00000000       0.00000000      -0.69721270
2
Properties=species:S:1:pos:R:3:forces:R:3 energy=-0.8905520582179279 pbc="F F F"
F        0.00000000       0.00000000       0.00000000       0.00000000       0.00000000       0.47161883
F        0.00000000       0.00000000       2.30505051       0.00000000       0.00000000      -0.47161883
2
Properties=species:S:1:pos:R:3:forces:R:3 energy=-0.8679577738672379 pbc="F F F"
F        0.00000000       0.00000000       0.00000000       0.00000000       0.00000000       0.29421732
F        0.00000000       0.00000000       2.36464646       0.00000000       0.00000000      -0.29421732
2
Properties=species:S:1:pos:R:3:forces:R:3 energy=-0.8546539259600843 pbc="F F F"
F        0.00000000       0.00000000       0.00000000       0.00000000       0.00000000       0.15853122
F        0.00000000       0.00000000       2.42424242       0.00000000       0.00000000      -0.15853122
2
Properties=species:S:1:pos:R:3:forces:R:3 energy=-0.8483879569758978 pbc="F F F"
F        0.00000000       0.00000000       0.00000000       0.00000000       0.00000000       0.05677765
F        0.00000000       0.00000000       2.48383838       0.00000000       0.00000000      -0.05677765
2
Properties=species:S:1:pos:R:3:forces:R:3 energy=-0.8473553909590166 pbc="F F F"
F        0.00000000       0.00000000       0.00000000       0.00000000       0.00000000      -0.01817836
F        0.00000000       0.00000000       2.54343434       0.00000000       0.00000000       0.01817836
2
Properties=species:S:1:pos:R:3:forces:R:3 energy=-0.8501408088732689 pbc="F F F"
F        0.00000000       0.00000000       0.00000000       0.00000000       0.00000000      -0.07224527
F        0.00000000       0.00000000       2.60303030       0.00000000       0.00000000       0.07224527
2
Properties=species:S:1:pos:R:3:forces:R:3 energy=-0.8556464091633968 pbc="F F F"
F        0.00000000       0.00000000       0.00000000       0.00000000       0.00000000      -0.11017071
F        0.00000000       0.00000000       2.66262626       0.00000000       0.00000000       0.11017071
2
Properties=species:S:1:pos:R:3:forces:R:3 energy=-0.8630272373050745 pbc="F F F"
F        0.00000000       0.00000000       0.00000000       0.00000000       0.00000000      -0.13573202
F        0.00000000       0.00000000       2.72222222       0.00000000       0.00000000       0.13573202
2
Properties=species:S:1:pos:R:3:forces:R:3 energy=-0.8716380911336795 pbc="F F F"
F        0.00000000       0.00000000       0.00000000       0.00000000       0.00000000      -0.15189016
F        0.00000000       0.00000000       2.78181818       0.00000000       0.00000000       0.15189016
2
Properties=species:S:1:pos:R:3:forces:R:3 energy=-0.88098977420285 pbc="F F F"
F        0.00000000       0.00000000       0.00000000       0.00000000       0.00000000      -0.16090810
F        0.00000000       0.00000000       2.84141414       0.00000000       0.00000000       0.16090810
2
Properties=species:S:1:pos:R:3:forces:R:3 energy=-0.8907100400909788 pbc="F F F"
F        0.00000000       0.00000000       0.00000000       0.00000000       0.00000000      -0.16449794
F        0.00000000       0.00000000       2.90101010       0.00000000       0.00000000       0.16449794
2
Properties=species:S:1:pos:R:3:forces:R:3 energy=-0.9005150283131228 pbc="F F F"
F        0.00000000       0.00000000       0.00000000       0.00000000       0.00000000      -0.16396773
F        0.00000000       0.00000000       2.96060606       0.00000000       0.00000000       0.16396773
2
Properties=species:S:1:pos:R:3:forces:R:3 energy=-0.9101921841304639 pbc="F F F"
F        0.00000000       0.00000000       0.00000000       0.00000000       0.00000000      -0.16034865
F        0.00000000       0.00000000       3.02020202       0.00000000       0.00000000       0.16034865
2
Properties=species:S:1:pos:R:3:forces:R:3 energy=-0.9195828136043024 pbc="F F F"
F        0.00000000       0.00000000       0.00000000       0.00000000       0.00000000      -0.15446050
F        0.00000000       0.00000000       3.07979798       0.00000000       0.00000000       0.15446050
2
Properties=species:S:1:pos:R:3:forces:R:3 energy=-0.9285699410875687 pbc="F F F"
F        0.00000000       0.00000000       0.00000000       0.00000000       0.00000000      -0.14691089
F        0.00000000       0.00000000       3.13939394       0.00000000       0.00000000       0.14691089
2
Properties=species:S:1:pos:R:3:forces:R:3 energy=-0.9370678320825888 pbc="F F F"
F        0.00000000       0.00000000       0.00000000       0.00000000       0.00000000      -0.13806395
F        0.00000000       0.00000000       3.19898990       0.00000000       0.00000000       0.13806395
2
Properties=species:S:1:pos:R:3:forces:R:3 energy=-0.9450016134122836 pbc="F F F"
F        0.00000000       0.00000000       0.00000000       0.00000000       0.00000000      -0.12800860
F        0.00000000       0.00000000       3.25858586       0.00000000       0.00000000       0.12800860
2
Properties=species:S:1:pos:R:3:forces:R:3 energy=-0.9522974030137706 pbc="F F F"
F        0.00000000       0.00000000       0.00000000       0.00000000       0.00000000      -0.11659267
F        0.00000000       0.00000000       3.31818182       0.00000000       0.00000000       0.11659267
2
Properties=species:S:1:pos:R:3:forces:R:3 energy=-0.9588662331273429 pbc="F F F"
F        0.00000000       0.00000000       0.00000000       0.00000000       0.00000000      -0.10353301
F        0.00000000       0.00000000       3.37777778       0.00000000       0.00000000       0.10353301
2
Properties=species:S:1:pos:R:3:forces:R:3 energy=-0.9646002726331152 pbc="F F F"
F        0.00000000       0.00000000       0.00000000       0.00000000       0.00000000      -0.08858477
F        0.00000000       0.00000000       3.43737374       0.00000000       0.00000000       0.08858477
2
Properties=species:S:1:pos:R:3:forces:R:3 energy=-0.9693859171061642 pbc="F F F"
F        0.00000000       0.00000000       0.00000000       0.00000000       0.00000000      -0.07170632
F        0.00000000       0.00000000       3.49696970       0.00000000       0.00000000       0.07170632
2
Properties=species:S:1:pos:R:3:forces:R:3 energy=-0.9731143372547423 pbc="F F F"
F        0.00000000       0.00000000       0.00000000       0.00000000       0.00000000      -0.05319402
F        0.00000000       0.00000000       3.55656566       0.00000000       0.00000000       0.05319402
2
Properties=species:S:1:pos:R:3:forces:R:3 energy=-0.9757068657472191 pbc="F F F"
F        0.00000000       0.00000000       0.00000000       0.00000000       0.00000000      -0.03371434
F        0.00000000       0.00000000       3.61616162       0.00000000       0.00000000       0.03371434
2
Properties=species:S:1:pos:R:3:forces:R:3 energy=-0.9771330692987813 pbc="F F F"
F        0.00000000       0.00000000       0.00000000       0.00000000       0.00000000      -0.01423170
F        0.00000000       0.00000000       3.67575758       0.00000000       0.00000000       0.01423170
2
Properties=species:S:1:pos:R:3:forces:R:3 energy=-0.9774251824989346 pbc="F F F"
F        0.00000000       0.00000000       0.00000000       0.00000000       0.00000000       0.00414757
F        0.00000000       0.00000000       3.73535354       0.00000000       0.00000000      -0.00414757
2
Properties=species:S:1:pos:R:3:forces:R:3 energy=-0.9766814088356881 pbc="F F F"
F        0.00000000       0.00000000       0.00000000       0.00000000       0.00000000       0.02038096
F        0.00000000       0.00000000       3.79494949       0.00000000       0.00000000      -0.02038096
2
Properties=species:S:1:pos:R:3:forces:R:3 energy=-0.9750539562980487 pbc="F F F"
F        0.00000000       0.00000000       0.00000000       0.00000000       0.00000000       0.03370248
F        0.00000000       0.00000000       3.85454545       0.00000000       0.00000000      -0.03370248
2
Properties=species:S:1:pos:R:3:forces:R:3 energy=-0.9727296852693798 pbc="F F F"
F        0.00000000       0.00000000       0.00000000       0.00000000       0.00000000       0.04375357
F        0.00000000       0.00000000       3.91414141       0.00000000       0.00000000      -0.04375357
2
Properties=species:S:1:pos:R:3:forces:R:3 energy=-0.9699025899904583 pbc="F F F"
F        0.00000000       0.00000000       0.00000000       0.00000000       0.00000000       0.05062015
F        0.00000000       0.00000000       3.97373737       0.00000000       0.00000000      -0.05062015
2
Properties=species:S:1:pos:R:3:forces:R:3 energy=-0.9667508101735256 pbc="F F F"
F        0.00000000       0.00000000       0.00000000       0.00000000       0.00000000       0.05473652
F        0.00000000       0.00000000       4.03333333       0.00000000       0.00000000      -0.05473652
2
Properties=species:S:1:pos:R:3:forces:R:3 energy=-0.9634208520065092 pbc="F F F"
F        0.00000000       0.00000000       0.00000000       0.00000000       0.00000000       0.05672605
F        0.00000000       0.00000000       4.09292929       0.00000000       0.00000000      -0.05672605
2
Properties=species:S:1:pos:R:3:forces:R:3 energy=-0.9600191954804599 pbc="F F F"
F        0.00000000       0.00000000       0.00000000       0.00000000       0.00000000       0.05722776
F        0.00000000       0.00000000       4.15252525       0.00000000       0.00000000      -0.05722776
2
Properties=species:S:1:pos:R:3:forces:R:3 energy=-0.9566177311825094 pbc="F F F"
F        0.00000000       0.00000000       0.00000000       0.00000000       0.00000000       0.05680358
F        0.00000000       0.00000000       4.21212121       0.00000000       0.00000000      -0.05680358
2
Properties=species:S:1:pos:R:3:forces:R:3 energy=-0.953257703606897 pbc="F F F"
F        0.00000000       0.00000000       0.00000000       0.00000000       0.00000000       0.05591924
F        0.00000000       0.00000000       4.27171717       0.00000000       0.00000000      -0.05591924
2
Properties=species:S:1:pos:R:3:forces:R:3 energy=-0.9499544277424682 pbc="F F F"
F        0.00000000       0.00000000       0.00000000       0.00000000       0.00000000       0.05495844
F        0.00000000       0.00000000       4.33131313       0.00000000       0.00000000      -0.05495844
2
Properties=species:S:1:pos:R:3:forces:R:3 energy=-0.9467024810124144 pbc="F F F"
F        0.00000000       0.00000000       0.00000000       0.00000000       0.00000000       0.05424030
F        0.00000000       0.00000000       4.39090909       0.00000000       0.00000000      -0.05424030
2
Properties=species:S:1:pos:R:3:forces:R:3 energy=-0.9434792832157536 pbc="F F F"
F        0.00000000       0.00000000       0.00000000       0.00000000       0.00000000       0.05402000
F        0.00000000       0.00000000       4.45050505       0.00000000       0.00000000      -0.05402000
2
Properties=species:S:1:pos:R:3:forces:R:3 energy=-0.9402502874276286 pbc="F F F"
F        0.00000000       0.00000000       0.00000000       0.00000000       0.00000000       0.05446609
F        0.00000000       0.00000000       4.51010101       0.00000000       0.00000000      -0.05446609
2
Properties=species:S:1:pos:R:3:forces:R:3 energy=-0.9369733889116235 pbc="F F F"
F        0.00000000       0.00000000       0.00000000       0.00000000       0.00000000       0.05561575
F        0.00000000       0.00000000       4.56969697       0.00000000       0.00000000      -0.05561575
2
Properties=species:S:1:pos:R:3:forces:R:3 energy=-0.9336101379205806 pbc="F F F"
F        0.00000000       0.00000000       0.00000000       0.00000000       0.00000000       0.05732445
F        0.00000000       0.00000000       4.62929293       0.00000000       0.00000000      -0.05732445
2
Properties=species:S:1:pos:R:3:forces:R:3 energy=-0.9301367032389483 pbc="F F F"
F        0.00000000       0.00000000       0.00000000       0.00000000       0.00000000       0.05923320
F        0.00000000       0.00000000       4.68888889       0.00000000       0.00000000      -0.05923320
2
Properties=species:S:1:pos:R:3:forces:R:3 energy=-0.926556989015917 pbc="F F F"
F        0.00000000       0.00000000       0.00000000       0.00000000       0.00000000       0.06078058
F        0.00000000       0.00000000       4.74848485       0.00000000       0.00000000      -0.06078058
2
Properties=species:S:1:pos:R:3:forces:R:3 energy=-0.9229123461152542 pbc="F F F"
F        0.00000000       0.00000000       0.00000000       0.00000000       0.00000000       0.06131555
F        0.00000000       0.00000000       4.80808081       0.00000000       0.00000000      -0.06131555
2
Properties=species:S:1:pos:R:3:forces:R:3 energy=-0.9192796095672796 pbc="F F F"
F        0.00000000       0.00000000       0.00000000       0.00000000       0.00000000       0.06030328
F        0.00000000       0.00000000       4.86767677       0.00000000       0.00000000      -0.06030328
2
Properties=species:S:1:pos:R:3:forces:R:3 energy=-0.9157588762013773 pbc="F F F"
F        0.00000000       0.00000000       0.00000000       0.00000000       0.00000000       0.05757947
F        0.00000000       0.00000000       4.92727273       0.00000000       0.00000000      -0.05757947
2
Properties=species:S:1:pos:R:3:forces:R:3 energy=-0.9124429272157406 pbc="F F F"
F        0.00000000       0.00000000       0.00000000       0.00000000       0.00000000       0.05355595
F        0.00000000       0.00000000       4.98686869       0.00000000       0.00000000      -0.05355595
2
Properties=species:S:1:pos:R:3:forces:R:3 energy=-0.9093821805967467 pbc="F F F"
F        0.00000000       0.00000000       0.00000000       0.00000000       0.00000000       0.04922240
F        0.00000000       0.00000000       5.04646465       0.00000000       0.00000000      -0.04922240
2
Properties=species:S:1:pos:R:3:forces:R:3 energy=-0.9065575686792139 pbc="F F F"
F        0.00000000       0.00000000       0.00000000       0.00000000       0.00000000       0.04581216
F        0.00000000       0.00000000       5.10606061       0.00000000       0.00000000      -0.04581216
2
Properties=species:S:1:pos:R:3:forces:R:3 energy=-0.9038854267172185 pbc="F F F"
F        0.00000000       0.00000000       0.00000000       0.00000000       0.00000000       0.04416020
F        0.00000000       0.00000000       5.16565657       0.00000000       0.00000000      -0.04416020
2
Properties=species:S:1:pos:R:3:forces:R:3 energy=-0.9012633865796769 pbc="F F F"
F        0.00000000       0.00000000       0.00000000       0.00000000       0.00000000       0.04398783
F        0.00000000       0.00000000       5.22525253       0.00000000       0.00000000      -0.04398783
2
Properties=species:S:1:pos:R:3:forces:R:3 energy=-0.8986435697444647 pbc="F F F"
F        0.00000000       0.00000000       0.00000000       0.00000000       0.00000000       0.04376757
F        0.00000000       0.00000000       5.28484848       0.00000000       0.00000000      -0.04376757
2
Properties=species:S:1:pos:R:3:forces:R:3 energy=-0.8960778875214069 pbc="F F F"
F        0.00000000       0.00000000       0.00000000       0.00000000       0.00000000       0.04208016
F        0.00000000       0.00000000       5.34444444       0.00000000       0.00000000      -0.04208016
2
Properties=species:S:1:pos:R:3:forces:R:3 energy=-0.8936295857547945 pbc="F F F"
F        0.00000000       0.00000000       0.00000000       0.00000000       0.00000000       0.04042915
F        0.00000000       0.00000000       5.40404040       0.00000000       0.00000000      -0.04042915
2
Properties=species:S:1:pos:R:3:forces:R:3 energy=-0.891180125502076 pbc="F F F"
F        0.00000000       0.00000000       0.00000000       0.00000000       0.00000000       0.04244884
F        0.00000000       0.00000000       5.46363636       0.00000000       0.00000000      -0.04244884
2
Properties=species:S:1:pos:R:3:forces:R:3 energy=-0.8885502391516994 pbc="F F F"
F        0.00000000       0.00000000       0.00000000       0.00000000       0.00000000       0.04532648
F        0.00000000       0.00000000       5.52323232       0.00000000       0.00000000      -0.04532648
2
Properties=species:S:1:pos:R:3:forces:R:3 energy=-0.8858914134206382 pbc="F F F"
F        0.00000000       0.00000000       0.00000000       0.00000000       0.00000000       0.04290977
F        0.00000000       0.00000000       5.58282828       0.00000000       0.00000000      -0.04290977
2
Properties=species:S:1:pos:R:3:forces:R:3 energy=-0.883508742964197 pbc="F F F"
F        0.00000000       0.00000000       0.00000000       0.00000000       0.00000000       0.03690713
F        0.00000000       0.00000000       5.64242424       0.00000000       0.00000000      -0.03690713
2
Properties=species:S:1:pos:R:3:forces:R:3 energy=-0.8814548441291459 pbc="F F F"
F        0.00000000       0.00000000       0.00000000       0.00000000       0.00000000       0.03262229
F        0.00000000       0.00000000       5.70202020       0.00000000       0.00000000      -0.03262229
2
Properties=species:S:1:pos:R:3:forces:R:3 energy=-0.8795583450953469 pbc="F F F"
F        0.00000000       0.00000000       0.00000000       0.00000000       0.00000000       0.03110324
F        0.00000000       0.00000000       5.76161616       0.00000000       0.00000000      -0.03110324
2
Properties=species:S:1:pos:R:3:forces:R:3 energy=-0.8778347995296295 pbc="F F F"
F        0.00000000       0.00000000       0.00000000       0.00000000       0.00000000       0.02548536
F        0.00000000       0.00000000       5.82121212       0.00000000       0.00000000      -0.02548536
2
Properties=species:S:1:pos:R:3:forces:R:3 energy=-0.8766410626900037 pbc="F F F"
F        0.00000000       0.00000000       0.00000000       0.00000000       0.00000000       0.01427224
F        0.00000000       0.00000000       5.88080808       0.00000000       0.00000000      -0.01427224
2
Properties=species:S:1:pos:R:3:forces:R:3 energy=-0.8761095232341283 pbc="F F F"
F        0.00000000       0.00000000       0.00000000       0.00000000       0.00000000       0.00407659
F        0.00000000       0.00000000       5.94040404       0.00000000       0.00000000      -0.00407659
2
Properties=species:S:1:pos:R:3:forces:R:3 energy=-0.8760239466452492 pbc="F F F"
F        0.00000000       0.00000000       0.00000000       0.00000000       0.00000000       0.00013400
F        0.00000000       0.00000000       6.00000000       0.00000000       0.00000000      -0.00013400
