2
Properties=species:S:1:pos:R:3:forces:R:3 energy=4743.750296263365 pbc="F F F"
Ga       0.00000000       0.00000000       0.00000000       0.00000000       0.00000000  -69314.91406250
Ga       0.00000000       0.00000000       0.18000000       0.00000000       0.00000000   69314.91406250
2
Properties=species:S:1:pos:R:3:forces:R:3 energy=2235.1611849352407 pbc="F F F"
Ga       0.00000000       0.00000000       0.00000000       0.00000000       0.00000000  -24925.46679688
Ga       0.00000000       0.00000000       0.23878788       0.00000000       0.00000000   24925.46679688
2
Properties=species:S:1:pos:R:3:forces:R:3 energy=1262.0546175587638 pbc="F F F"
Ga       0.00000000       0.00000000       0.00000000       0.00000000       0.00000000  -10566.05468750
Ga       0.00000000       0.00000000       0.29757576       0.00000000       0.00000000   10566.05468750
2
Properties=species:S:1:pos:R:3:forces:R:3 energy=828.4247347462638 pbc="F F F"
Ga       0.00000000       0.00000000       0.00000000       0.00000000       0.00000000   -4987.52148438
Ga       0.00000000       0.00000000       0.35636364       0.00000000       0.00000000    4987.52148438
2
Properties=species:S:1:pos:R:3:forces:R:3 energy=616.0333773307244 pbc="F F F"
Ga       0.00000000       0.00000000       0.00000000       0.00000000       0.00000000   -2553.52319336
Ga       0.00000000       0.00000000       0.41515152       0.00000000       0.00000000    2553.52319336
2
Properties=species:S:1:pos:R:3:forces:R:3 energy=503.3739535121029 pbc="F F F"
Ga       0.00000000       0.00000000       0.00000000       0.00000000       0.00000000   -1418.66027832
Ga       0.00000000       0.00000000       0.47393939       0.00000000       0.00000000    1418.66027832
2
Properties=species:S:1:pos:R:3:forces:R:3 energy=437.75392789951206 pbc="F F F"
Ga       0.00000000       0.00000000       0.00000000       0.00000000       0.00000000    -881.60040283
Ga       0.00000000       0.00000000       0.53272727       0.00000000       0.00000000     881.60040283
2
Properties=species:S:1:pos:R:3:forces:R:3 energy=393.8957126054947 pbc="F F F"
Ga       0.00000000       0.00000000       0.00000000       0.00000000       0.00000000    -646.59411621
Ga       0.00000000       0.00000000       0.59151515       0.00000000       0.00000000     646.59411621
2
Properties=species:S:1:pos:R:3:forces:R:3 energy=358.48009377236673 pbc="F F F"
Ga       0.00000000       0.00000000       0.00000000       0.00000000       0.00000000    -579.75170898
Ga       0.00000000       0.00000000       0.65030303       0.00000000       0.00000000     579.75170898
2
Properties=species:S:1:pos:R:3:forces:R:3 energy=323.67604724287764 pbc="F F F"
Ga       0.00000000       0.00000000       0.00000000       0.00000000       0.00000000    -617.86779785
Ga       0.00000000       0.00000000       0.70909091       0.00000000       0.00000000     617.86779785
2
Properties=species:S:1:pos:R:3:forces:R:3 energy=284.2343359628162 pbc="F F F"
Ga       0.00000000       0.00000000       0.00000000       0.00000000       0.00000000    -743.81951904
Ga       0.00000000       0.00000000       0.76787879       0.00000000       0.00000000     743.81951904
2
Properties=species:S:1:pos:R:3:forces:R:3 energy=237.7230294250363 pbc="F F F"
Ga       0.00000000       0.00000000       0.00000000       0.00000000       0.00000000    -816.51800537
Ga       0.00000000       0.00000000       0.82666667       0.00000000       0.00000000     816.51800537
2
Properties=species:S:1:pos:R:3:forces:R:3 energy=190.02082026599442 pbc="F F F"
Ga       0.00000000       0.00000000       0.00000000       0.00000000       0.00000000    -791.32513428
Ga       0.00000000       0.00000000       0.88545455       0.00000000       0.00000000     791.32513428
2
Properties=species:S:1:pos:R:3:forces:R:3 energy=146.07787332179421 pbc="F F F"
Ga       0.00000000       0.00000000       0.00000000       0.00000000       0.00000000    -696.69683838
Ga       0.00000000       0.00000000       0.94424242       0.00000000       0.00000000     696.69683838
2
Properties=species:S:1:pos:R:3:forces:R:3 energy=108.60290597980874 pbc="F F F"
Ga       0.00000000       0.00000000       0.00000000       0.00000000       0.00000000    -574.42395020
Ga       0.00000000       0.00000000       1.00303030       0.00000000       0.00000000     574.42395020
2
Properties=species:S:1:pos:R:3:forces:R:3 energy=78.82332001145032 pbc="F F F"
Ga       0.00000000       0.00000000       0.00000000       0.00000000       0.00000000    -439.78100586
Ga       0.00000000       0.00000000       1.06181818       0.00000000       0.00000000     439.78100586
2
Properties=species:S:1:pos:R:3:forces:R:3 energy=56.61273455966521 pbc="F F F"
Ga       0.00000000       0.00000000       0.00000000       0.00000000       0.00000000    -315.97497559
Ga       0.00000000       0.00000000       1.12060606       0.00000000       0.00000000     315.97497559
2
Properties=species:S:1:pos:R:3:forces:R:3 energy=41.58211541656966 pbc="F F F"
Ga       0.00000000       0.00000000       0.00000000       0.00000000       0.00000000    -200.73959351
Ga       0.00000000       0.00000000       1.17939394       0.00000000       0.00000000     200.73959351
2
Properties=species:S:1:pos:R:3:forces:R:3 energy=31.949196057209186 pbc="F F F"
Ga       0.00000000       0.00000000       0.00000000       0.00000000       0.00000000    -136.78433228
Ga       0.00000000       0.00000000       1.23818182       0.00000000       0.00000000     136.78433228
2
Properties=species:S:1:pos:R:3:forces:R:3 energy=24.638664903180583 pbc="F F F"
Ga       0.00000000       0.00000000       0.00000000       0.00000000       0.00000000    -115.39984131
Ga       0.00000000       0.00000000       1.29696970       0.00000000       0.00000000     115.39984131
2
Properties=species:S:1:pos:R:3:forces:R:3 energy=18.39743789212183 pbc="F F F"
Ga       0.00000000       0.00000000       0.00000000       0.00000000       0.00000000     -94.92614746
Ga       0.00000000       0.00000000       1.35575758       0.00000000       0.00000000      94.92614746
2
Properties=species:S:1:pos:R:3:forces:R:3 energy=13.615900778492392 pbc="F F F"
Ga       0.00000000       0.00000000       0.00000000       0.00000000       0.00000000     -68.11204529
Ga       0.00000000       0.00000000       1.41454545       0.00000000       0.00000000      68.11204529
2
Properties=species:S:1:pos:R:3:forces:R:3 energy=10.228280713597297 pbc="F F F"
Ga       0.00000000       0.00000000       0.00000000       0.00000000       0.00000000     -48.80345535
Ga       0.00000000       0.00000000       1.47333333       0.00000000       0.00000000      48.80345535
2
Properties=species:S:1:pos:R:3:forces:R:3 energy=7.718797413249718 pbc="F F F"
Ga       0.00000000       0.00000000       0.00000000       0.00000000       0.00000000     -37.51819611
Ga       0.00000000       0.00000000       1.53212121       0.00000000       0.00000000      37.51819611
2
Properties=species:S:1:pos:R:3:forces:R:3 energy=5.743412094697651 pbc="F F F"
Ga       0.00000000       0.00000000       0.00000000       0.00000000       0.00000000     -30.08589554
Ga       0.00000000       0.00000000       1.59090909       0.00000000       0.00000000      30.08589554
2
Properties=species:S:1:pos:R:3:forces:R:3 energy=4.147788091549042 pbc="F F F"
Ga       0.00000000       0.00000000       0.00000000       0.00000000       0.00000000     -24.41694641
Ga       0.00000000       0.00000000       1.64969697       0.00000000       0.00000000      24.41694641
2
Properties=species:S:1:pos:R:3:forces:R:3 energy=2.850465397551858 pbc="F F F"
Ga       0.00000000       0.00000000       0.00000000       0.00000000       0.00000000     -19.88560486
Ga       0.00000000       0.00000000       1.70848485       0.00000000       0.00000000      19.88560486
2
Properties=species:S:1:pos:R:3:forces:R:3 energy=1.7921080965156575 pbc="F F F"
Ga       0.00000000       0.00000000       0.00000000       0.00000000       0.00000000     -16.25369263
Ga       0.00000000       0.00000000       1.76727273       0.00000000       0.00000000      16.25369263
2
Properties=species:S:1:pos:R:3:forces:R:3 energy=0.9255367746003429 pbc="F F F"
Ga       0.00000000       0.00000000       0.00000000       0.00000000       0.00000000     -13.33121109
Ga       0.00000000       0.00000000       1.82606061       0.00000000       0.00000000      13.33121109
2
Properties=species:S:1:pos:R:3:forces:R:3 energy=0.21409901110739737 pbc="F F F"
Ga       0.00000000       0.00000000       0.00000000       0.00000000       0.00000000     -10.94932747
Ga       0.00000000       0.00000000       1.88484848       0.00000000       0.00000000      10.94932747
2
Properties=species:S:1:pos:R:3:forces:R:3 energy=-0.36948700606570895 pbc="F F F"
Ga       0.00000000       0.00000000       0.00000000       0.00000000       0.00000000      -8.95884705
Ga       0.00000000       0.00000000       1.94363636       0.00000000       0.00000000       8.95884705
2
Properties=species:S:1:pos:R:3:forces:R:3 energy=-0.8446761304354027 pbc="F F F"
Ga       0.00000000       0.00000000       0.00000000       0.00000000       0.00000000      -7.24748278
Ga       0.00000000       0.00000000       2.00242424       0.00000000       0.00000000       7.24748278
2
Properties=species:S:1:pos:R:3:forces:R:3 energy=-1.2259113258680565 pbc="F F F"
Ga       0.00000000       0.00000000       0.00000000       0.00000000       0.00000000      -5.75683069
Ga       0.00000000       0.00000000       2.06121212       0.00000000       0.00000000       5.75683069
2
Properties=species:S:1:pos:R:3:forces:R:3 energy=-1.525458338524548 pbc="F F F"
Ga       0.00000000       0.00000000       0.00000000       0.00000000       0.00000000      -4.46642017
Ga       0.00000000       0.00000000       2.12000000       0.00000000       0.00000000       4.46642017
2
Properties=species:S:1:pos:R:3:forces:R:3 energy=-1.7547817441127624 pbc="F F F"
Ga       0.00000000       0.00000000       0.00000000       0.00000000       0.00000000      -3.36596513
Ga       0.00000000       0.00000000       2.17878788       0.00000000       0.00000000       3.36596513
2
Properties=species:S:1:pos:R:3:forces:R:3 energy=-1.924664192607162 pbc="F F F"
Ga       0.00000000       0.00000000       0.00000000       0.00000000       0.00000000      -2.44139886
Ga       0.00000000       0.00000000       2.23757576       0.00000000       0.00000000       2.44139886
2
Properties=species:S:1:pos:R:3:forces:R:3 energy=-2.044920298202326 pbc="F F F"
Ga       0.00000000       0.00000000       0.00000000       0.00000000       0.00000000      -1.67448664
Ga       0.00000000       0.00000000       2.29636364       0.00000000       0.00000000       1.67448664
2
Properties=species:S:1:pos:R:3:forces:R:3 energy=-2.124258225824445 pbc="F F F"
Ga       0.00000000       0.00000000       0.00000000       0.00000000       0.00000000      -1.04620266
Ga       0.00000000       0.00000000       2.35515152       0.00000000       0.00000000       1.04620266
2
Properties=species:S:1:pos:R:3:forces:R:3 energy=-2.170296401438664 pbc="F F F"
Ga       0.00000000       0.00000000       0.00000000       0.00000000       0.00000000      -0.53878301
Ga       0.00000000       0.00000000       2.41393939       0.00000000       0.00000000       0.53878301
2
Properties=species:S:1:pos:R:3:forces:R:3 energy=-2.1896541171087476 pbc="F F F"
Ga       0.00000000       0.00000000       0.00000000       0.00000000       0.00000000      -0.13592018
Ga       0.00000000       0.00000000       2.47272727       0.00000000       0.00000000       0.13592018
2
Properties=species:S:1:pos:R:3:forces:R:3 energy=-2.1880250551142186 pbc="F F F"
Ga       0.00000000       0.00000000       0.00000000       0.00000000       0.00000000       0.17772189
Ga       0.00000000       0.00000000       2.53151515       0.00000000       0.00000000      -0.17772189
2
Properties=species:S:1:pos:R:3:forces:R:3 energy=-2.170223901614361 pbc="F F F"
Ga       0.00000000       0.00000000       0.00000000       0.00000000       0.00000000       0.41655323
Ga       0.00000000       0.00000000       2.59030303       0.00000000       0.00000000      -0.41655323
2
Properties=species:S:1:pos:R:3:forces:R:3 energy=-2.1402536960732608 pbc="F F F"
Ga       0.00000000       0.00000000       0.00000000       0.00000000       0.00000000       0.59383392
Ga       0.00000000       0.00000000       2.64909091       0.00000000       0.00000000      -0.59383392
2
Properties=species:S:1:pos:R:3:forces:R:3 energy=-2.1013774557407574 pbc="F F F"
Ga       0.00000000       0.00000000       0.00000000       0.00000000       0.00000000       0.72134715
Ga       0.00000000       0.00000000       2.70787879       0.00000000       0.00000000      -0.72134715
2
Properties=species:S:1:pos:R:3:forces:R:3 energy=-2.0562113647122233 pbc="F F F"
Ga       0.00000000       0.00000000       0.00000000       0.00000000       0.00000000       0.80947793
Ga       0.00000000       0.00000000       2.76666667       0.00000000       0.00000000      -0.80947793
2
Properties=species:S:1:pos:R:3:forces:R:3 energy=-2.0067937948447474 pbc="F F F"
Ga       0.00000000       0.00000000       0.00000000       0.00000000       0.00000000       0.86739427
Ga       0.00000000       0.00000000       2.82545455       0.00000000       0.00000000      -0.86739427
2
Properties=species:S:1:pos:R:3:forces:R:3 energy=-1.9546614399182007 pbc="F F F"
Ga       0.00000000       0.00000000       0.00000000       0.00000000       0.00000000       0.90309668
Ga       0.00000000       0.00000000       2.88424242       0.00000000       0.00000000      -0.90309668
2
Properties=species:S:1:pos:R:3:forces:R:3 energy=-1.900911788238351 pbc="F F F"
Ga       0.00000000       0.00000000       0.00000000       0.00000000       0.00000000       0.92346030
Ga       0.00000000       0.00000000       2.94303030       0.00000000       0.00000000      -0.92346030
2
Properties=species:S:1:pos:R:3:forces:R:3 energy=-1.8462851320240923 pbc="F F F"
Ga       0.00000000       0.00000000       0.00000000       0.00000000       0.00000000       0.93348366
Ga       0.00000000       0.00000000       3.00181818       0.00000000       0.00000000      -0.93348366
2
Properties=species:S:1:pos:R:3:forces:R:3 energy=-1.7913328440171823 pbc="F F F"
Ga       0.00000000       0.00000000       0.00000000       0.00000000       0.00000000       0.93439460
Ga       0.00000000       0.00000000       3.06060606       0.00000000       0.00000000      -0.93439460
2
Properties=species:S:1:pos:R:3:forces:R:3 energy=-1.7366357839615225 pbc="F F F"
Ga       0.00000000       0.00000000       0.00000000       0.00000000       0.00000000       0.92447323
Ga       0.00000000       0.00000000       3.11939394       0.00000000       0.00000000      -0.92447323
2
Properties=species:S:1:pos:R:3:forces:R:3 energy=-1.6828617755880368 pbc="F F F"
Ga       0.00000000       0.00000000       0.00000000       0.00000000       0.00000000       0.90318656
Ga       0.00000000       0.00000000       3.17818182       0.00000000       0.00000000      -0.90318656
2
Properties=species:S:1:pos:R:3:forces:R:3 energy=-1.6306136941189118 pbc="F F F"
Ga       0.00000000       0.00000000       0.00000000       0.00000000       0.00000000       0.87328637
Ga       0.00000000       0.00000000       3.23696970       0.00000000       0.00000000      -0.87328637
2
Properties=species:S:1:pos:R:3:forces:R:3 energy=-1.5802537067917426 pbc="F F F"
Ga       0.00000000       0.00000000       0.00000000       0.00000000       0.00000000       0.83989871
Ga       0.00000000       0.00000000       3.29575758       0.00000000       0.00000000      -0.83989871
2
Properties=species:S:1:pos:R:3:forces:R:3 energy=-1.531817808450648 pbc="F F F"
Ga       0.00000000       0.00000000       0.00000000       0.00000000       0.00000000       0.80870616
Ga       0.00000000       0.00000000       3.35454545       0.00000000       0.00000000      -0.80870616
2
Properties=species:S:1:pos:R:3:forces:R:3 energy=-1.4850333059538299 pbc="F F F"
Ga       0.00000000       0.00000000       0.00000000       0.00000000       0.00000000       0.78435802
Ga       0.00000000       0.00000000       3.41333333       0.00000000       0.00000000      -0.78435802
2
Properties=species:S:1:pos:R:3:forces:R:3 energy=-1.4394094967978897 pbc="F F F"
Ga       0.00000000       0.00000000       0.00000000       0.00000000       0.00000000       0.76946086
Ga       0.00000000       0.00000000       3.47212121       0.00000000       0.00000000      -0.76946086
2
Properties=species:S:1:pos:R:3:forces:R:3 energy=-1.3943719871735172 pbc="F F F"
Ga       0.00000000       0.00000000       0.00000000       0.00000000       0.00000000       0.76427639
Ga       0.00000000       0.00000000       3.53090909       0.00000000       0.00000000      -0.76427639
2
Properties=species:S:1:pos:R:3:forces:R:3 energy=-1.3493929072119477 pbc="F F F"
Ga       0.00000000       0.00000000       0.00000000       0.00000000       0.00000000       0.76704139
Ga       0.00000000       0.00000000       3.58969697       0.00000000       0.00000000      -0.76704139
2
Properties=species:S:1:pos:R:3:forces:R:3 energy=-1.3040905166102683 pbc="F F F"
Ga       0.00000000       0.00000000       0.00000000       0.00000000       0.00000000       0.77469188
Ga       0.00000000       0.00000000       3.64848485       0.00000000       0.00000000      -0.77469188
2
Properties=species:S:1:pos:R:3:forces:R:3 energy=-1.258282430003459 pbc="F F F"
Ga       0.00000000       0.00000000       0.00000000       0.00000000       0.00000000       0.78366023
Ga       0.00000000       0.00000000       3.70727273       0.00000000       0.00000000      -0.78366023
2
Properties=species:S:1:pos:R:3:forces:R:3 energy=-1.2119912276406313 pbc="F F F"
Ga       0.00000000       0.00000000       0.00000000       0.00000000       0.00000000       0.79057050
Ga       0.00000000       0.00000000       3.76606061       0.00000000       0.00000000      -0.79057050
2
Properties=species:S:1:pos:R:3:forces:R:3 energy=-1.1654248907264178 pbc="F F F"
Ga       0.00000000       0.00000000       0.00000000       0.00000000       0.00000000       0.79269350
Ga       0.00000000       0.00000000       3.82484848       0.00000000       0.00000000      -0.79269350
2
Properties=species:S:1:pos:R:3:forces:R:3 energy=-1.1189209124390571 pbc="F F F"
Ga       0.00000000       0.00000000       0.00000000       0.00000000       0.00000000       0.78816211
Ga       0.00000000       0.00000000       3.88363636       0.00000000       0.00000000      -0.78816211
2
Properties=species:S:1:pos:R:3:forces:R:3 energy=-1.0729056689054952 pbc="F F F"
Ga       0.00000000       0.00000000       0.00000000       0.00000000       0.00000000       0.77600163
Ga       0.00000000       0.00000000       3.94242424       0.00000000       0.00000000      -0.77600163
2
Properties=species:S:1:pos:R:3:forces:R:3 energy=-1.027835884272393 pbc="F F F"
Ga       0.00000000       0.00000000       0.00000000       0.00000000       0.00000000       0.75604153
Ga       0.00000000       0.00000000       4.00121212       0.00000000       0.00000000      -0.75604153
2
Properties=species:S:1:pos:R:3:forces:R:3 energy=-0.9841582763617431 pbc="F F F"
Ga       0.00000000       0.00000000       0.00000000       0.00000000       0.00000000       0.72872967
Ga       0.00000000       0.00000000       4.06000000       0.00000000       0.00000000      -0.72872967
2
Properties=species:S:1:pos:R:3:forces:R:3 energy=-0.9422818310075841 pbc="F F F"
Ga       0.00000000       0.00000000       0.00000000       0.00000000       0.00000000       0.69496942
Ga       0.00000000       0.00000000       4.11878788       0.00000000       0.00000000      -0.69496942
2
Properties=species:S:1:pos:R:3:forces:R:3 energy=-0.9025495500383515 pbc="F F F"
Ga       0.00000000       0.00000000       0.00000000       0.00000000       0.00000000       0.65595388
Ga       0.00000000       0.00000000       4.17757576       0.00000000       0.00000000      -0.65595388
2
Properties=species:S:1:pos:R:3:forces:R:3 energy=-0.8652317813083322 pbc="F F F"
Ga       0.00000000       0.00000000       0.00000000       0.00000000       0.00000000       0.61310637
Ga       0.00000000       0.00000000       4.23636364       0.00000000       0.00000000      -0.61310637
2
Properties=species:S:1:pos:R:3:forces:R:3 energy=-0.8305057457941066 pbc="F F F"
Ga       0.00000000       0.00000000       0.00000000       0.00000000       0.00000000       0.56807405
Ga       0.00000000       0.00000000       4.29515152       0.00000000       0.00000000      -0.56807405
2
Properties=species:S:1:pos:R:3:forces:R:3 energy=-0.7984463927413215 pbc="F F F"
Ga       0.00000000       0.00000000       0.00000000       0.00000000       0.00000000       0.52274561
Ga       0.00000000       0.00000000       4.35393939       0.00000000       0.00000000      -0.52274561
2
Properties=species:S:1:pos:R:3:forces:R:3 energy=-0.7690096590950215 pbc="F F F"
Ga       0.00000000       0.00000000       0.00000000       0.00000000       0.00000000       0.47916791
Ga       0.00000000       0.00000000       4.41272727       0.00000000       0.00000000      -0.47916791
2
Properties=species:S:1:pos:R:3:forces:R:3 energy=-0.7420336647603677 pbc="F F F"
Ga       0.00000000       0.00000000       0.00000000       0.00000000       0.00000000       0.43934241
Ga       0.00000000       0.00000000       4.47151515       0.00000000       0.00000000      -0.43934241
2
Properties=species:S:1:pos:R:3:forces:R:3 energy=-0.717247899469471 pbc="F F F"
Ga       0.00000000       0.00000000       0.00000000       0.00000000       0.00000000       0.40486437
Ga       0.00000000       0.00000000       4.53030303       0.00000000       0.00000000      -0.40486437
2
Properties=species:S:1:pos:R:3:forces:R:3 energy=-0.6943099043965301 pbc="F F F"
Ga       0.00000000       0.00000000       0.00000000       0.00000000       0.00000000       0.37655479
Ga       0.00000000       0.00000000       4.58909091       0.00000000       0.00000000      -0.37655479
2
Properties=species:S:1:pos:R:3:forces:R:3 energy=-0.6728567541478305 pbc="F F F"
Ga       0.00000000       0.00000000       0.00000000       0.00000000       0.00000000       0.35423151
Ga       0.00000000       0.00000000       4.64787879       0.00000000       0.00000000      -0.35423151
2
Properties=species:S:1:pos:R:3:forces:R:3 energy=-0.6525657267865302 pbc="F F F"
Ga       0.00000000       0.00000000       0.00000000       0.00000000       0.00000000       0.33672324
Ga       0.00000000       0.00000000       4.70666667       0.00000000       0.00000000      -0.33672324
2
Properties=species:S:1:pos:R:3:forces:R:3 energy=-0.6332077090104014 pbc="F F F"
Ga       0.00000000       0.00000000       0.00000000       0.00000000       0.00000000       0.32220292
Ga       0.00000000       0.00000000       4.76545455       0.00000000       0.00000000      -0.32220292
2
Properties=species:S:1:pos:R:3:forces:R:3 energy=-0.6146614379101341 pbc="F F F"
Ga       0.00000000       0.00000000       0.00000000       0.00000000       0.00000000       0.30874074
Ga       0.00000000       0.00000000       4.82424242       0.00000000       0.00000000      -0.30874074
2
Properties=species:S:1:pos:R:3:forces:R:3 energy=-0.5969159130815509 pbc="F F F"
Ga       0.00000000       0.00000000       0.00000000       0.00000000       0.00000000       0.29490691
Ga       0.00000000       0.00000000       4.88303030       0.00000000       0.00000000      -0.29490691
2
Properties=species:S:1:pos:R:3:forces:R:3 energy=-0.5800068068051454 pbc="F F F"
Ga       0.00000000       0.00000000       0.00000000       0.00000000       0.00000000       0.28016159
Ga       0.00000000       0.00000000       4.94181818       0.00000000       0.00000000      -0.28016159
2
Properties=species:S:1:pos:R:3:forces:R:3 energy=-0.56398487200044 pbc="F F F"
Ga       0.00000000       0.00000000       0.00000000       0.00000000       0.00000000       0.26491743
Ga       0.00000000       0.00000000       5.00060606       0.00000000       0.00000000      -0.26491743
2
Properties=species:S:1:pos:R:3:forces:R:3 energy=-0.5488494408654392 pbc="F F F"
Ga       0.00000000       0.00000000       0.00000000       0.00000000       0.00000000       0.25011557
Ga       0.00000000       0.00000000       5.05939394       0.00000000       0.00000000      -0.25011557
2
Properties=species:S:1:pos:R:3:forces:R:3 energy=-0.5345538546509717 pbc="F F F"
Ga       0.00000000       0.00000000       0.00000000       0.00000000       0.00000000       0.23645934
Ga       0.00000000       0.00000000       5.11818182       0.00000000       0.00000000      -0.23645934
2
Properties=species:S:1:pos:R:3:forces:R:3 energy=-0.5210341946833835 pbc="F F F"
Ga       0.00000000       0.00000000       0.00000000       0.00000000       0.00000000       0.22345828
Ga       0.00000000       0.00000000       5.17696970       0.00000000       0.00000000      -0.22345828
2
Properties=species:S:1:pos:R:3:forces:R:3 energy=-0.5083140067254731 pbc="F F F"
Ga       0.00000000       0.00000000       0.00000000       0.00000000       0.00000000       0.20872533
Ga       0.00000000       0.00000000       5.23575758       0.00000000       0.00000000      -0.20872533
2
Properties=species:S:1:pos:R:3:forces:R:3 energy=-0.4965962376812477 pbc="F F F"
Ga       0.00000000       0.00000000       0.00000000       0.00000000       0.00000000       0.18886566
Ga       0.00000000       0.00000000       5.29454545       0.00000000       0.00000000      -0.18886566
2
Properties=species:S:1:pos:R:3:forces:R:3 energy=-0.48619983426087954 pbc="F F F"
Ga       0.00000000       0.00000000       0.00000000       0.00000000       0.00000000       0.16475943
Ga       0.00000000       0.00000000       5.35333333       0.00000000       0.00000000      -0.16475943
2
Properties=species:S:1:pos:R:3:forces:R:3 energy=-0.4770606748739129 pbc="F F F"
Ga       0.00000000       0.00000000       0.00000000       0.00000000       0.00000000       0.14921409
Ga       0.00000000       0.00000000       5.41212121       0.00000000       0.00000000      -0.14921409
2
Properties=species:S:1:pos:R:3:forces:R:3 energy=-0.46821726649207457 pbc="F F F"
Ga       0.00000000       0.00000000       0.00000000       0.00000000       0.00000000       0.15459879
Ga       0.00000000       0.00000000       5.47090909       0.00000000       0.00000000      -0.15459879
2
Properties=species:S:1:pos:R:3:forces:R:3 energy=-0.45885359601779513 pbc="F F F"
Ga       0.00000000       0.00000000       0.00000000       0.00000000       0.00000000       0.16127095
Ga       0.00000000       0.00000000       5.52969697       0.00000000       0.00000000      -0.16127095
2
Properties=species:S:1:pos:R:3:forces:R:3 energy=-0.44969702880664814 pbc="F F F"
Ga       0.00000000       0.00000000       0.00000000       0.00000000       0.00000000       0.14712718
Ga       0.00000000       0.00000000       5.58848485       0.00000000       0.00000000      -0.14712718
2
Properties=species:S:1:pos:R:3:forces:R:3 energy=-0.4416476067859829 pbc="F F F"
Ga       0.00000000       0.00000000       0.00000000       0.00000000       0.00000000       0.12889917
Ga       0.00000000       0.00000000       5.64727273       0.00000000       0.00000000      -0.12889917
2
Properties=species:S:1:pos:R:3:forces:R:3 energy=-0.4340484498763314 pbc="F F F"
Ga       0.00000000       0.00000000       0.00000000       0.00000000       0.00000000       0.13457771
Ga       0.00000000       0.00000000       5.70606061       0.00000000       0.00000000      -0.13457771
2
Properties=species:S:1:pos:R:3:forces:R:3 energy=-0.4254920394006501 pbc="F F F"
Ga       0.00000000       0.00000000       0.00000000       0.00000000       0.00000000       0.15434551
Ga       0.00000000       0.00000000       5.76484848       0.00000000       0.00000000      -0.15434551
2
Properties=species:S:1:pos:R:3:forces:R:3 energy=-0.41660476539845825 pbc="F F F"
Ga       0.00000000       0.00000000       0.00000000       0.00000000       0.00000000       0.13973171
Ga       0.00000000       0.00000000       5.82363636       0.00000000       0.00000000      -0.13973171
2
Properties=species:S:1:pos:R:3:forces:R:3 energy=-0.4099181507908003 pbc="F F F"
Ga       0.00000000       0.00000000       0.00000000       0.00000000       0.00000000       0.08478653
Ga       0.00000000       0.00000000       5.88242424       0.00000000       0.00000000      -0.08478653
2
Properties=species:S:1:pos:R:3:forces:R:3 energy=-0.4066282336669291 pbc="F F F"
Ga       0.00000000       0.00000000       0.00000000       0.00000000       0.00000000       0.03006426
Ga       0.00000000       0.00000000       5.94121212       0.00000000       0.00000000      -0.03006426
2
Properties=species:S:1:pos:R:3:forces:R:3 energy=-0.4057120194163889 pbc="F F F"
Ga       0.00000000       0.00000000       0.00000000       0.00000000       0.00000000       0.00820687
Ga       0.00000000       0.00000000       6.00000000       0.00000000       0.00000000      -0.00820687
