2
Properties=species:S:1:pos:R:3:forces:R:3 energy=20059.484182985285 pbc="F F F"
Ga       0.00000000       0.00000000       0.00000000       0.00000000       0.00000000 -449992.56250000
Ga       0.00000000       0.00000000       0.10000000       0.00000000       0.00000000  449992.56250000
2
Properties=species:S:1:pos:R:3:forces:R:3 energy=6487.558890016533 pbc="F F F"
Ga       0.00000000       0.00000000       0.00000000       0.00000000       0.00000000 -104510.78906250
Ga       0.00000000       0.00000000       0.15959596       0.00000000       0.00000000  104510.78906250
2
Properties=species:S:1:pos:R:3:forces:R:3 energy=2809.4851595477835 pbc="F F F"
Ga       0.00000000       0.00000000       0.00000000       0.00000000       0.00000000  -34281.63671875
Ga       0.00000000       0.00000000       0.21919192       0.00000000       0.00000000   34281.63671875
2
Properties=species:S:1:pos:R:3:forces:R:3 energy=1488.6165072040335 pbc="F F F"
Ga       0.00000000       0.00000000       0.00000000       0.00000000       0.00000000  -13711.26171875
Ga       0.00000000       0.00000000       0.27878788       0.00000000       0.00000000   13711.26171875
2
Properties=species:S:1:pos:R:3:forces:R:3 energy=928.679434453295 pbc="F F F"
Ga       0.00000000       0.00000000       0.00000000       0.00000000       0.00000000   -6216.57177734
Ga       0.00000000       0.00000000       0.33838384       0.00000000       0.00000000    6216.57177734
2
Properties=species:S:1:pos:R:3:forces:R:3 energy=664.2392489127557 pbc="F F F"
Ga       0.00000000       0.00000000       0.00000000       0.00000000       0.00000000   -3080.59594727
Ga       0.00000000       0.00000000       0.39797980       0.00000000       0.00000000    3080.59594727
2
Properties=species:S:1:pos:R:3:forces:R:3 energy=528.4574496026851 pbc="F F F"
Ga       0.00000000       0.00000000       0.00000000       0.00000000       0.00000000   -1655.24267578
Ga       0.00000000       0.00000000       0.45757576       0.00000000       0.00000000    1655.24267578
2
Properties=species:S:1:pos:R:3:forces:R:3 energy=452.2523104615358 pbc="F F F"
Ga       0.00000000       0.00000000       0.00000000       0.00000000       0.00000000    -986.19097900
Ga       0.00000000       0.00000000       0.51717172       0.00000000       0.00000000     986.19097900
2
Properties=species:S:1:pos:R:3:forces:R:3 energy=403.70964691899525 pbc="F F F"
Ga       0.00000000       0.00000000       0.00000000       0.00000000       0.00000000    -686.16210938
Ga       0.00000000       0.00000000       0.57676768       0.00000000       0.00000000     686.16210938
2
Properties=species:S:1:pos:R:3:forces:R:3 energy=366.586111819766 pbc="F F F"
Ga       0.00000000       0.00000000       0.00000000       0.00000000       0.00000000    -584.38604736
Ga       0.00000000       0.00000000       0.63636364       0.00000000       0.00000000     584.38604736
2
Properties=species:S:1:pos:R:3:forces:R:3 energy=331.68688095776946 pbc="F F F"
Ga       0.00000000       0.00000000       0.00000000       0.00000000       0.00000000    -602.73077393
Ga       0.00000000       0.00000000       0.69595960       0.00000000       0.00000000     602.73077393
2
Properties=species:S:1:pos:R:3:forces:R:3 energy=293.1857824643411 pbc="F F F"
Ga       0.00000000       0.00000000       0.00000000       0.00000000       0.00000000    -708.46551514
Ga       0.00000000       0.00000000       0.75555556       0.00000000       0.00000000     708.46551514
2
Properties=species:S:1:pos:R:3:forces:R:3 energy=247.0974342815777 pbc="F F F"
Ga       0.00000000       0.00000000       0.00000000       0.00000000       0.00000000    -811.10583496
Ga       0.00000000       0.00000000       0.81515152       0.00000000       0.00000000     811.10583496
2
Properties=species:S:1:pos:R:3:forces:R:3 energy=198.555976452638 pbc="F F F"
Ga       0.00000000       0.00000000       0.00000000       0.00000000       0.00000000    -802.52270508
Ga       0.00000000       0.00000000       0.87474747       0.00000000       0.00000000     802.52270508
2
Properties=species:S:1:pos:R:3:forces:R:3 energy=153.06618500700895 pbc="F F F"
Ga       0.00000000       0.00000000       0.00000000       0.00000000       0.00000000    -715.12280273
Ga       0.00000000       0.00000000       0.93434343       0.00000000       0.00000000     715.12280273
2
Properties=species:S:1:pos:R:3:forces:R:3 energy=113.91806090139967 pbc="F F F"
Ga       0.00000000       0.00000000       0.00000000       0.00000000       0.00000000    -594.83605957
Ga       0.00000000       0.00000000       0.99393939       0.00000000       0.00000000     594.83605957
2
Properties=species:S:1:pos:R:3:forces:R:3 energy=82.5411924980307 pbc="F F F"
Ga       0.00000000       0.00000000       0.00000000       0.00000000       0.00000000    -458.01260376
Ga       0.00000000       0.00000000       1.05353535       0.00000000       0.00000000     458.01260376
2
Properties=species:S:1:pos:R:3:forces:R:3 energy=59.03400667910614 pbc="F F F"
Ga       0.00000000       0.00000000       0.00000000       0.00000000       0.00000000    -331.88253784
Ga       0.00000000       0.00000000       1.11313131       0.00000000       0.00000000     331.88253784
2
Properties=species:S:1:pos:R:3:forces:R:3 energy=42.956768095384795 pbc="F F F"
Ga       0.00000000       0.00000000       0.00000000       0.00000000       0.00000000    -211.76918030
Ga       0.00000000       0.00000000       1.17272727       0.00000000       0.00000000     211.76918030
2
Properties=species:S:1:pos:R:3:forces:R:3 energy=32.76157187047179 pbc="F F F"
Ga       0.00000000       0.00000000       0.00000000       0.00000000       0.00000000    -140.62564087
Ga       0.00000000       0.00000000       1.23232323       0.00000000       0.00000000     140.62564087
2
Properties=species:S:1:pos:R:3:forces:R:3 energy=25.224750951458567 pbc="F F F"
Ga       0.00000000       0.00000000       0.00000000       0.00000000       0.00000000    -116.70223236
Ga       0.00000000       0.00000000       1.29191919       0.00000000       0.00000000     116.70223236
2
Properties=species:S:1:pos:R:3:forces:R:3 energy=18.8041244405399 pbc="F F F"
Ga       0.00000000       0.00000000       0.00000000       0.00000000       0.00000000     -96.79888916
Ga       0.00000000       0.00000000       1.35151515       0.00000000       0.00000000      96.79888916
2
Properties=species:S:1:pos:R:3:forces:R:3 energy=13.852269670733513 pbc="F F F"
Ga       0.00000000       0.00000000       0.00000000       0.00000000       0.00000000     -69.54938507
Ga       0.00000000       0.00000000       1.41111111       0.00000000       0.00000000      69.54938507
2
Properties=species:S:1:pos:R:3:forces:R:3 energy=10.357317382559804 pbc="F F F"
Ga       0.00000000       0.00000000       0.00000000       0.00000000       0.00000000     -49.46122742
Ga       0.00000000       0.00000000       1.47070707       0.00000000       0.00000000      49.46122742
2
Properties=species:S:1:pos:R:3:forces:R:3 energy=7.7872643538746775 pbc="F F F"
Ga       0.00000000       0.00000000       0.00000000       0.00000000       0.00000000     -37.79246140
Ga       0.00000000       0.00000000       1.53030303       0.00000000       0.00000000      37.79246140
2
Properties=species:S:1:pos:R:3:forces:R:3 energy=5.773860878391162 pbc="F F F"
Ga       0.00000000       0.00000000       0.00000000       0.00000000       0.00000000     -30.19567299
Ga       0.00000000       0.00000000       1.58989899       0.00000000       0.00000000      30.19567299
2
Properties=species:S:1:pos:R:3:forces:R:3 energy=4.152719509760958 pbc="F F F"
Ga       0.00000000       0.00000000       0.00000000       0.00000000       0.00000000     -24.43430519
Ga       0.00000000       0.00000000       1.64949495       0.00000000       0.00000000      24.43430519
2
Properties=species:S:1:pos:R:3:forces:R:3 energy=2.8384234723358377 pbc="F F F"
Ga       0.00000000       0.00000000       0.00000000       0.00000000       0.00000000     -19.84391022
Ga       0.00000000       0.00000000       1.70909091       0.00000000       0.00000000      19.84391022
2
Properties=species:S:1:pos:R:3:forces:R:3 energy=1.7691765991041466 pbc="F F F"
Ga       0.00000000       0.00000000       0.00000000       0.00000000       0.00000000     -16.17577362
Ga       0.00000000       0.00000000       1.76868687       0.00000000       0.00000000      16.17577362
2
Properties=species:S:1:pos:R:3:forces:R:3 energy=0.8960167551535306 pbc="F F F"
Ga       0.00000000       0.00000000       0.00000000       0.00000000       0.00000000     -13.23232269
Ga       0.00000000       0.00000000       1.82828283       0.00000000       0.00000000      13.23232269
2
Properties=species:S:1:pos:R:3:forces:R:3 energy=0.1810848421749519 pbc="F F F"
Ga       0.00000000       0.00000000       0.00000000       0.00000000       0.00000000     -10.83830452
Ga       0.00000000       0.00000000       1.88787879       0.00000000       0.00000000      10.83830452
2
Properties=species:S:1:pos:R:3:forces:R:3 energy=-0.40364500563434086 pbc="F F F"
Ga       0.00000000       0.00000000       0.00000000       0.00000000       0.00000000      -8.83950806
Ga       0.00000000       0.00000000       1.94747475       0.00000000       0.00000000       8.83950806
2
Properties=species:S:1:pos:R:3:forces:R:3 energy=-0.878059602987106 pbc="F F F"
Ga       0.00000000       0.00000000       0.00000000       0.00000000       0.00000000      -7.12206221
Ga       0.00000000       0.00000000       2.00707071       0.00000000       0.00000000       7.12206221
2
Properties=species:S:1:pos:R:3:forces:R:3 energy=-1.2569622460021381 pbc="F F F"
Ga       0.00000000       0.00000000       0.00000000       0.00000000       0.00000000      -5.62883759
Ga       0.00000000       0.00000000       2.06666667       0.00000000       0.00000000       5.62883759
2
Properties=species:S:1:pos:R:3:forces:R:3 energy=-1.5530341004557988 pbc="F F F"
Ga       0.00000000       0.00000000       0.00000000       0.00000000       0.00000000      -4.34034967
Ga       0.00000000       0.00000000       2.12626263       0.00000000       0.00000000       4.34034967
2
Properties=species:S:1:pos:R:3:forces:R:3 energy=-1.7781557735570144 pbc="F F F"
Ga       0.00000000       0.00000000       0.00000000       0.00000000       0.00000000      -3.24578667
Ga       0.00000000       0.00000000       2.18585859       0.00000000       0.00000000       3.24578667
2
Properties=species:S:1:pos:R:3:forces:R:3 energy=-1.9434589675836484 pbc="F F F"
Ga       0.00000000       0.00000000       0.00000000       0.00000000       0.00000000      -2.32988954
Ga       0.00000000       0.00000000       2.24545455       0.00000000       0.00000000       2.32988954
2
Properties=species:S:1:pos:R:3:forces:R:3 energy=-2.0590241599565076 pbc="F F F"
Ga       0.00000000       0.00000000       0.00000000       0.00000000       0.00000000      -1.57336318
Ga       0.00000000       0.00000000       2.30505051       0.00000000       0.00000000       1.57336318
2
Properties=species:S:1:pos:R:3:forces:R:3 energy=-2.1337632434457077 pbc="F F F"
Ga       0.00000000       0.00000000       0.00000000       0.00000000       0.00000000      -0.95650482
Ga       0.00000000       0.00000000       2.36464646       0.00000000       0.00000000       0.95650482
2
Properties=species:S:1:pos:R:3:forces:R:3 energy=-2.1754440936197055 pbc="F F F"
Ga       0.00000000       0.00000000       0.00000000       0.00000000       0.00000000      -0.46106598
Ga       0.00000000       0.00000000       2.42424242       0.00000000       0.00000000       0.46106598
2
Properties=species:S:1:pos:R:3:forces:R:3 energy=-2.1907962818065183 pbc="F F F"
Ga       0.00000000       0.00000000       0.00000000       0.00000000       0.00000000      -0.07025196
Ga       0.00000000       0.00000000       2.48383838       0.00000000       0.00000000       0.07025196
2
Properties=species:S:1:pos:R:3:forces:R:3 energy=-2.1855814395807136 pbc="F F F"
Ga       0.00000000       0.00000000       0.00000000       0.00000000       0.00000000       0.23174198
Ga       0.00000000       0.00000000       2.54343434       0.00000000       0.00000000      -0.23174198
2
Properties=species:S:1:pos:R:3:forces:R:3 energy=-2.1646455746344584 pbc="F F F"
Ga       0.00000000       0.00000000       0.00000000       0.00000000       0.00000000       0.45972583
Ga       0.00000000       0.00000000       2.60303030       0.00000000       0.00000000      -0.45972583
2
Properties=species:S:1:pos:R:3:forces:R:3 energy=-2.1319871139556086 pbc="F F F"
Ga       0.00000000       0.00000000       0.00000000       0.00000000       0.00000000       0.62720454
Ga       0.00000000       0.00000000       2.66262626       0.00000000       0.00000000      -0.62720454
2
Properties=species:S:1:pos:R:3:forces:R:3 energy=-2.0908515413814586 pbc="F F F"
Ga       0.00000000       0.00000000       0.00000000       0.00000000       0.00000000       0.74611175
Ga       0.00000000       0.00000000       2.72222222       0.00000000       0.00000000      -0.74611175
2
Properties=species:S:1:pos:R:3:forces:R:3 energy=-2.043811572015338 pbc="F F F"
Ga       0.00000000       0.00000000       0.00000000       0.00000000       0.00000000       0.82695359
Ga       0.00000000       0.00000000       2.78181818       0.00000000       0.00000000      -0.82695359
2
Properties=species:S:1:pos:R:3:forces:R:3 energy=-1.9928560247290845 pbc="F F F"
Ga       0.00000000       0.00000000       0.00000000       0.00000000       0.00000000       0.87897468
Ga       0.00000000       0.00000000       2.84141414       0.00000000       0.00000000      -0.87897468
2
Properties=species:S:1:pos:R:3:forces:R:3 energy=-1.9394580772620291 pbc="F F F"
Ga       0.00000000       0.00000000       0.00000000       0.00000000       0.00000000       0.91020089
Ga       0.00000000       0.00000000       2.90101010       0.00000000       0.00000000      -0.91020089
2
Properties=species:S:1:pos:R:3:forces:R:3 energy=-1.8846450461380553 pbc="F F F"
Ga       0.00000000       0.00000000       0.00000000       0.00000000       0.00000000       0.92739826
Ga       0.00000000       0.00000000       2.96060606       0.00000000       0.00000000      -0.92739826
2
Properties=species:S:1:pos:R:3:forces:R:3 energy=-1.8291104235157798 pbc="F F F"
Ga       0.00000000       0.00000000       0.00000000       0.00000000       0.00000000       0.93480551
Ga       0.00000000       0.00000000       3.02020202       0.00000000       0.00000000      -0.93480551
2
Properties=species:S:1:pos:R:3:forces:R:3 energy=-1.7734167181962694 pbc="F F F"
Ga       0.00000000       0.00000000       0.00000000       0.00000000       0.00000000       0.93243361
Ga       0.00000000       0.00000000       3.07979798       0.00000000       0.00000000      -0.93243361
2
Properties=species:S:1:pos:R:3:forces:R:3 energy=-1.7182047299302952 pbc="F F F"
Ga       0.00000000       0.00000000       0.00000000       0.00000000       0.00000000       0.91843486
Ga       0.00000000       0.00000000       3.13939394       0.00000000       0.00000000      -0.91843486
2
Properties=species:S:1:pos:R:3:forces:R:3 energy=-1.6641692723424844 pbc="F F F"
Ga       0.00000000       0.00000000       0.00000000       0.00000000       0.00000000       0.89335620
Ga       0.00000000       0.00000000       3.19898990       0.00000000       0.00000000      -0.89335620
2
Properties=species:S:1:pos:R:3:forces:R:3 energy=-1.61186753623635 pbc="F F F"
Ga       0.00000000       0.00000000       0.00000000       0.00000000       0.00000000       0.86110777
Ga       0.00000000       0.00000000       3.25858586       0.00000000       0.00000000      -0.86110777
2
Properties=species:S:1:pos:R:3:forces:R:3 energy=-1.5615598559255115 pbc="F F F"
Ga       0.00000000       0.00000000       0.00000000       0.00000000       0.00000000       0.82745349
Ga       0.00000000       0.00000000       3.31818182       0.00000000       0.00000000      -0.82745349
2
Properties=species:S:1:pos:R:3:forces:R:3 energy=-1.5131558513671723 pbc="F F F"
Ga       0.00000000       0.00000000       0.00000000       0.00000000       0.00000000       0.79806888
Ga       0.00000000       0.00000000       3.37777778       0.00000000       0.00000000      -0.79806888
2
Properties=species:S:1:pos:R:3:forces:R:3 energy=-1.4662688236284833 pbc="F F F"
Ga       0.00000000       0.00000000       0.00000000       0.00000000       0.00000000       0.77705801
Ga       0.00000000       0.00000000       3.43737374       0.00000000       0.00000000      -0.77705801
2
Properties=species:S:1:pos:R:3:forces:R:3 energy=-1.420334501882914 pbc="F F F"
Ga       0.00000000       0.00000000       0.00000000       0.00000000       0.00000000       0.76614726
Ga       0.00000000       0.00000000       3.49696970       0.00000000       0.00000000      -0.76614726
2
Properties=species:S:1:pos:R:3:forces:R:3 energy=-1.374761671795773 pbc="F F F"
Ga       0.00000000       0.00000000       0.00000000       0.00000000       0.00000000       0.76466477
Ga       0.00000000       0.00000000       3.55656566       0.00000000       0.00000000      -0.76466477
2
Properties=species:S:1:pos:R:3:forces:R:3 energy=-1.3290552873944592 pbc="F F F"
Ga       0.00000000       0.00000000       0.00000000       0.00000000       0.00000000       0.77009118
Ga       0.00000000       0.00000000       3.61616162       0.00000000       0.00000000      -0.77009118
2
Properties=species:S:1:pos:R:3:forces:R:3 energy=-1.2829056441290063 pbc="F F F"
Ga       0.00000000       0.00000000       0.00000000       0.00000000       0.00000000       0.77890468
Ga       0.00000000       0.00000000       3.67575758       0.00000000       0.00000000      -0.77890468
2
Properties=species:S:1:pos:R:3:forces:R:3 energy=-1.2362222234790459 pbc="F F F"
Ga       0.00000000       0.00000000       0.00000000       0.00000000       0.00000000       0.78740323
Ga       0.00000000       0.00000000       3.73535354       0.00000000       0.00000000      -0.78740323
2
Properties=species:S:1:pos:R:3:forces:R:3 energy=-1.1891242844275152 pbc="F F F"
Ga       0.00000000       0.00000000       0.00000000       0.00000000       0.00000000       0.79234964
Ga       0.00000000       0.00000000       3.79494949       0.00000000       0.00000000      -0.79234964
2
Properties=species:S:1:pos:R:3:forces:R:3 energy=-1.1418998514653114 pbc="F F F"
Ga       0.00000000       0.00000000       0.00000000       0.00000000       0.00000000       0.79131633
Ga       0.00000000       0.00000000       3.85454545       0.00000000       0.00000000      -0.79131633
2
Properties=species:S:1:pos:R:3:forces:R:3 energy=-1.0949541900037116 pbc="F F F"
Ga       0.00000000       0.00000000       0.00000000       0.00000000       0.00000000       0.78283250
Ga       0.00000000       0.00000000       3.91414141       0.00000000       0.00000000      -0.78283250
2
Properties=species:S:1:pos:R:3:forces:R:3 energy=-1.0487521672669797 pbc="F F F"
Ga       0.00000000       0.00000000       0.00000000       0.00000000       0.00000000       0.76632452
Ga       0.00000000       0.00000000       3.97373737       0.00000000       0.00000000      -0.76632452
2
Properties=species:S:1:pos:R:3:forces:R:3 energy=-1.0037709452113481 pbc="F F F"
Ga       0.00000000       0.00000000       0.00000000       0.00000000       0.00000000       0.74198037
Ga       0.00000000       0.00000000       4.03333333       0.00000000       0.00000000      -0.74198037
2
Properties=species:S:1:pos:R:3:forces:R:3 energy=-0.9604557297039696 pbc="F F F"
Ga       0.00000000       0.00000000       0.00000000       0.00000000       0.00000000       0.71054286
Ga       0.00000000       0.00000000       4.09292929       0.00000000       0.00000000      -0.71054286
2
Properties=species:S:1:pos:R:3:forces:R:3 energy=-0.9191981936415082 pbc="F F F"
Ga       0.00000000       0.00000000       0.00000000       0.00000000       0.00000000       0.67313462
Ga       0.00000000       0.00000000       4.15252525       0.00000000       0.00000000      -0.67313462
2
Properties=species:S:1:pos:R:3:forces:R:3 energy=-0.8803148404640859 pbc="F F F"
Ga       0.00000000       0.00000000       0.00000000       0.00000000       0.00000000       0.63114083
Ga       0.00000000       0.00000000       4.21212121       0.00000000       0.00000000      -0.63114083
2
Properties=species:S:1:pos:R:3:forces:R:3 energy=-0.8440307441745714 pbc="F F F"
Ga       0.00000000       0.00000000       0.00000000       0.00000000       0.00000000       0.58617240
Ga       0.00000000       0.00000000       4.27171717       0.00000000       0.00000000      -0.58617240
2
Properties=species:S:1:pos:R:3:forces:R:3 energy=-0.8104701096299505 pbc="F F F"
Ga       0.00000000       0.00000000       0.00000000       0.00000000       0.00000000       0.54009902
Ga       0.00000000       0.00000000       4.33131313       0.00000000       0.00000000      -0.54009902
2
Properties=species:S:1:pos:R:3:forces:R:3 energy=-0.7796362669714613 pbc="F F F"
Ga       0.00000000       0.00000000       0.00000000       0.00000000       0.00000000       0.49500483
Ga       0.00000000       0.00000000       4.39090909       0.00000000       0.00000000      -0.49500483
2
Properties=species:S:1:pos:R:3:forces:R:3 energy=-0.7514069864483047 pbc="F F F"
Ga       0.00000000       0.00000000       0.00000000       0.00000000       0.00000000       0.45303145
Ga       0.00000000       0.00000000       4.45050505       0.00000000       0.00000000      -0.45303145
2
Properties=species:S:1:pos:R:3:forces:R:3 energy=-0.7255392689639829 pbc="F F F"
Ga       0.00000000       0.00000000       0.00000000       0.00000000       0.00000000       0.41603786
Ga       0.00000000       0.00000000       4.51010101       0.00000000       0.00000000      -0.41603786
2
Properties=species:S:1:pos:R:3:forces:R:3 energy=-0.7016951778941589 pbc="F F F"
Ga       0.00000000       0.00000000       0.00000000       0.00000000       0.00000000       0.38520271
Ga       0.00000000       0.00000000       4.56969697       0.00000000       0.00000000      -0.38520271
2
Properties=species:S:1:pos:R:3:forces:R:3 energy=-0.6794993987505539 pbc="F F F"
Ga       0.00000000       0.00000000       0.00000000       0.00000000       0.00000000       0.36069638
Ga       0.00000000       0.00000000       4.62929293       0.00000000       0.00000000      -0.36069638
2
Properties=species:S:1:pos:R:3:forces:R:3 energy=-0.6585952467881737 pbc="F F F"
Ga       0.00000000       0.00000000       0.00000000       0.00000000       0.00000000       0.34161153
Ga       0.00000000       0.00000000       4.68888889       0.00000000       0.00000000      -0.34161153
2
Properties=species:S:1:pos:R:3:forces:R:3 energy=-0.6387085315062883 pbc="F F F"
Ga       0.00000000       0.00000000       0.00000000       0.00000000       0.00000000       0.32620400
Ga       0.00000000       0.00000000       4.74848485       0.00000000       0.00000000      -0.32620400
2
Properties=species:S:1:pos:R:3:forces:R:3 energy=-0.6196823630091156 pbc="F F F"
Ga       0.00000000       0.00000000       0.00000000       0.00000000       0.00000000       0.31243375
Ga       0.00000000       0.00000000       4.80808081       0.00000000       0.00000000      -0.31243375
2
Properties=species:S:1:pos:R:3:forces:R:3 energy=-0.6014707695570988 pbc="F F F"
Ga       0.00000000       0.00000000       0.00000000       0.00000000       0.00000000       0.29860222
Ga       0.00000000       0.00000000       4.86767677       0.00000000       0.00000000      -0.29860222
2
Properties=species:S:1:pos:R:3:forces:R:3 energy=-0.584108812881142 pbc="F F F"
Ga       0.00000000       0.00000000       0.00000000       0.00000000       0.00000000       0.28388709
Ga       0.00000000       0.00000000       4.92727273       0.00000000       0.00000000      -0.28388709
2
Properties=species:S:1:pos:R:3:forces:R:3 energy=-0.56764791180732 pbc="F F F"
Ga       0.00000000       0.00000000       0.00000000       0.00000000       0.00000000       0.26847741
Ga       0.00000000       0.00000000       4.98686869       0.00000000       0.00000000      -0.26847741
2
Properties=species:S:1:pos:R:3:forces:R:3 energy=-0.5521057385092879 pbc="F F F"
Ga       0.00000000       0.00000000       0.00000000       0.00000000       0.00000000       0.25328642
Ga       0.00000000       0.00000000       5.04646465       0.00000000       0.00000000      -0.25328642
2
Properties=species:S:1:pos:R:3:forces:R:3 energy=-0.5374372532347671 pbc="F F F"
Ga       0.00000000       0.00000000       0.00000000       0.00000000       0.00000000       0.23918067
Ga       0.00000000       0.00000000       5.10606061       0.00000000       0.00000000      -0.23918067
2
Properties=species:S:1:pos:R:3:forces:R:3 energy=-0.5235753879354139 pbc="F F F"
Ga       0.00000000       0.00000000       0.00000000       0.00000000       0.00000000       0.22599664
Ga       0.00000000       0.00000000       5.16565657       0.00000000       0.00000000      -0.22599664
2
Properties=species:S:1:pos:R:3:forces:R:3 energy=-0.5105209474941629 pbc="F F F"
Ga       0.00000000       0.00000000       0.00000000       0.00000000       0.00000000       0.21164934
Ga       0.00000000       0.00000000       5.22525253       0.00000000       0.00000000      -0.21164934
2
Properties=species:S:1:pos:R:3:forces:R:3 energy=-0.498445195362542 pbc="F F F"
Ga       0.00000000       0.00000000       0.00000000       0.00000000       0.00000000       0.19257420
Ga       0.00000000       0.00000000       5.28484848       0.00000000       0.00000000      -0.19257420
2
Properties=species:S:1:pos:R:3:forces:R:3 energy=-0.4876792479776881 pbc="F F F"
Ga       0.00000000       0.00000000       0.00000000       0.00000000       0.00000000       0.16831890
Ga       0.00000000       0.00000000       5.34444444       0.00000000       0.00000000      -0.16831890
2
Properties=species:S:1:pos:R:3:forces:R:3 energy=-0.47826817529061694 pbc="F F F"
Ga       0.00000000       0.00000000       0.00000000       0.00000000       0.00000000       0.15015219
Ga       0.00000000       0.00000000       5.40404040       0.00000000       0.00000000      -0.15015219
2
Properties=species:S:1:pos:R:3:forces:R:3 energy=-0.4693331549154236 pbc="F F F"
Ga       0.00000000       0.00000000       0.00000000       0.00000000       0.00000000       0.15316063
Ga       0.00000000       0.00000000       5.46363636       0.00000000       0.00000000      -0.15316063
2
Properties=species:S:1:pos:R:3:forces:R:3 energy=-0.4598991111323883 pbc="F F F"
Ga       0.00000000       0.00000000       0.00000000       0.00000000       0.00000000       0.16148154
Ga       0.00000000       0.00000000       5.52323232       0.00000000       0.00000000      -0.16148154
2
Properties=species:S:1:pos:R:3:forces:R:3 energy=-0.45053550104595175 pbc="F F F"
Ga       0.00000000       0.00000000       0.00000000       0.00000000       0.00000000       0.14916079
Ga       0.00000000       0.00000000       5.58282828       0.00000000       0.00000000      -0.14916079
2
Properties=species:S:1:pos:R:3:forces:R:3 energy=-0.4422717790626603 pbc="F F F"
Ga       0.00000000       0.00000000       0.00000000       0.00000000       0.00000000       0.12977432
Ga       0.00000000       0.00000000       5.64242424       0.00000000       0.00000000      -0.12977432
2
Properties=species:S:1:pos:R:3:forces:R:3 energy=-0.43458174115911585 pbc="F F F"
Ga       0.00000000       0.00000000       0.00000000       0.00000000       0.00000000       0.13334461
Ga       0.00000000       0.00000000       5.70202020       0.00000000       0.00000000      -0.13334461
2
Properties=species:S:1:pos:R:3:forces:R:3 energy=-0.4260097384075866 pbc="F F F"
Ga       0.00000000       0.00000000       0.00000000       0.00000000       0.00000000       0.15359862
Ga       0.00000000       0.00000000       5.76161616       0.00000000       0.00000000      -0.15359862
2
Properties=species:S:1:pos:R:3:forces:R:3 energy=-0.4169586766078079 pbc="F F F"
Ga       0.00000000       0.00000000       0.00000000       0.00000000       0.00000000       0.14129032
Ga       0.00000000       0.00000000       5.82121212       0.00000000       0.00000000      -0.14129032
2
Properties=species:S:1:pos:R:3:forces:R:3 energy=-0.4100720850198356 pbc="F F F"
Ga       0.00000000       0.00000000       0.00000000       0.00000000       0.00000000       0.08643021
Ga       0.00000000       0.00000000       5.88080808       0.00000000       0.00000000      -0.08643021
2
Properties=species:S:1:pos:R:3:forces:R:3 energy=-0.4066478897455013 pbc="F F F"
Ga       0.00000000       0.00000000       0.00000000       0.00000000       0.00000000       0.03070618
Ga       0.00000000       0.00000000       5.94040404       0.00000000       0.00000000      -0.03070618
2
Properties=species:S:1:pos:R:3:forces:R:3 energy=-0.4057120194163889 pbc="F F F"
Ga       0.00000000       0.00000000       0.00000000       0.00000000       0.00000000       0.00820687
Ga       0.00000000       0.00000000       6.00000000       0.00000000       0.00000000      -0.00820687
