2
Properties=species:S:1:pos:R:3:forces:R:3 energy=62121.23748623384 pbc="F F F"
Gd       0.00000000       0.00000000       0.00000000       0.00000000       0.00000000 -1542286.37500000
Gd       0.00000000       0.00000000       0.10000000       0.00000000       0.00000000 1542286.37500000
2
Properties=species:S:1:pos:R:3:forces:R:3 energy=17467.977720608844 pbc="F F F"
Gd       0.00000000       0.00000000       0.00000000       0.00000000       0.00000000 -324084.28125000
Gd       0.00000000       0.00000000       0.15959596       0.00000000       0.00000000  324084.28125000
2
Properties=species:S:1:pos:R:3:forces:R:3 energy=6409.617369046343 pbc="F F F"
Gd       0.00000000       0.00000000       0.00000000       0.00000000       0.00000000  -98765.68750000
Gd       0.00000000       0.00000000       0.21919192       0.00000000       0.00000000   98765.68750000
2
Properties=species:S:1:pos:R:3:forces:R:3 energy=2714.2289413119674 pbc="F F F"
Gd       0.00000000       0.00000000       0.00000000       0.00000000       0.00000000  -36820.50000000
Gd       0.00000000       0.00000000       0.27878788       0.00000000       0.00000000   36820.50000000
2
Properties=species:S:1:pos:R:3:forces:R:3 energy=1258.2609237338427 pbc="F F F"
Gd       0.00000000       0.00000000       0.00000000       0.00000000       0.00000000  -15472.45703125
Gd       0.00000000       0.00000000       0.33838384       0.00000000       0.00000000   15472.45703125
2
Properties=species:S:1:pos:R:3:forces:R:3 energy=623.4022811557177 pbc="F F F"
Gd       0.00000000       0.00000000       0.00000000       0.00000000       0.00000000   -7047.82177734
Gd       0.00000000       0.00000000       0.39797980       0.00000000       0.00000000    7047.82177734
2
Properties=species:S:1:pos:R:3:forces:R:3 energy=325.9320663246389 pbc="F F F"
Gd       0.00000000       0.00000000       0.00000000       0.00000000       0.00000000   -3416.32080078
Gd       0.00000000       0.00000000       0.45757576       0.00000000       0.00000000    3416.32080078
2
Properties=species:S:1:pos:R:3:forces:R:3 energy=178.2554763714899 pbc="F F F"
Gd       0.00000000       0.00000000       0.00000000       0.00000000       0.00000000   -1745.42651367
Gd       0.00000000       0.00000000       0.51717172       0.00000000       0.00000000    1745.42651367
2
Properties=species:S:1:pos:R:3:forces:R:3 energy=101.1985153435978 pbc="F F F"
Gd       0.00000000       0.00000000       0.00000000       0.00000000       0.00000000    -933.88812256
Gd       0.00000000       0.00000000       0.57676768       0.00000000       0.00000000     933.88812256
2
Properties=species:S:1:pos:R:3:forces:R:3 energy=59.19329306739067 pbc="F F F"
Gd       0.00000000       0.00000000       0.00000000       0.00000000       0.00000000    -520.26550293
Gd       0.00000000       0.00000000       0.63636364       0.00000000       0.00000000     520.26550293
2
Properties=species:S:1:pos:R:3:forces:R:3 energy=35.413198996689886 pbc="F F F"
Gd       0.00000000       0.00000000       0.00000000       0.00000000       0.00000000    -299.96984863
Gd       0.00000000       0.00000000       0.69595960       0.00000000       0.00000000     299.96984863
2
Properties=species:S:1:pos:R:3:forces:R:3 energy=21.51790111925238 pbc="F F F"
Gd       0.00000000       0.00000000       0.00000000       0.00000000       0.00000000    -177.90834045
Gd       0.00000000       0.00000000       0.75555556       0.00000000       0.00000000     177.90834045
2
Properties=species:S:1:pos:R:3:forces:R:3 energy=13.186692120246805 pbc="F F F"
Gd       0.00000000       0.00000000       0.00000000       0.00000000       0.00000000    -107.96678162
Gd       0.00000000       0.00000000       0.81515152       0.00000000       0.00000000     107.96678162
2
Properties=species:S:1:pos:R:3:forces:R:3 energy=8.082705633560272 pbc="F F F"
Gd       0.00000000       0.00000000       0.00000000       0.00000000       0.00000000     -66.88793182
Gd       0.00000000       0.00000000       0.87474747       0.00000000       0.00000000      66.88793182
2
Properties=species:S:1:pos:R:3:forces:R:3 energy=4.884927305581059 pbc="F F F"
Gd       0.00000000       0.00000000       0.00000000       0.00000000       0.00000000     -42.56746674
Gd       0.00000000       0.00000000       0.93434343       0.00000000       0.00000000      42.56746674
2
Properties=species:S:1:pos:R:3:forces:R:3 energy=2.804033354889048 pbc="F F F"
Gd       0.00000000       0.00000000       0.00000000       0.00000000       0.00000000     -28.66561890
Gd       0.00000000       0.00000000       0.99393939       0.00000000       0.00000000      28.66561890
2
Properties=species:S:1:pos:R:3:forces:R:3 energy=1.3259628390413656 pbc="F F F"
Gd       0.00000000       0.00000000       0.00000000       0.00000000       0.00000000     -21.97737694
Gd       0.00000000       0.00000000       1.05353535       0.00000000       0.00000000      21.97737694
2
Properties=species:S:1:pos:R:3:forces:R:3 energy=0.07165698350383083 pbc="F F F"
Gd       0.00000000       0.00000000       0.00000000       0.00000000       0.00000000     -20.99499702
Gd       0.00000000       0.00000000       1.11313131       0.00000000       0.00000000      20.99499702
2
Properties=species:S:1:pos:R:3:forces:R:3 energy=-1.2717999630403554 pbc="F F F"
Gd       0.00000000       0.00000000       0.00000000       0.00000000       0.00000000     -24.74498558
Gd       0.00000000       0.00000000       1.17272727       0.00000000       0.00000000      24.74498558
2
Properties=species:S:1:pos:R:3:forces:R:3 energy=-2.916590923220688 pbc="F F F"
Gd       0.00000000       0.00000000       0.00000000       0.00000000       0.00000000     -30.35627174
Gd       0.00000000       0.00000000       1.23232323       0.00000000       0.00000000      30.35627174
2
Properties=species:S:1:pos:R:3:forces:R:3 energy=-4.840010730213147 pbc="F F F"
Gd       0.00000000       0.00000000       0.00000000       0.00000000       0.00000000     -33.63327408
Gd       0.00000000       0.00000000       1.29191919       0.00000000       0.00000000      33.63327408
2
Properties=species:S:1:pos:R:3:forces:R:3 energy=-6.862085693023791 pbc="F F F"
Gd       0.00000000       0.00000000       0.00000000       0.00000000       0.00000000     -33.72376251
Gd       0.00000000       0.00000000       1.35151515       0.00000000       0.00000000      33.72376251
2
Properties=species:S:1:pos:R:3:forces:R:3 energy=-8.799221922268444 pbc="F F F"
Gd       0.00000000       0.00000000       0.00000000       0.00000000       0.00000000     -30.78975105
Gd       0.00000000       0.00000000       1.41111111       0.00000000       0.00000000      30.78975105
2
Properties=species:S:1:pos:R:3:forces:R:3 energy=-10.483663216942423 pbc="F F F"
Gd       0.00000000       0.00000000       0.00000000       0.00000000       0.00000000     -25.47674561
Gd       0.00000000       0.00000000       1.47070707       0.00000000       0.00000000      25.47674561
2
Properties=species:S:1:pos:R:3:forces:R:3 energy=-11.823979714602084 pbc="F F F"
Gd       0.00000000       0.00000000       0.00000000       0.00000000       0.00000000     -19.53220558
Gd       0.00000000       0.00000000       1.53030303       0.00000000       0.00000000      19.53220558
2
Properties=species:S:1:pos:R:3:forces:R:3 energy=-12.820062506306025 pbc="F F F"
Gd       0.00000000       0.00000000       0.00000000       0.00000000       0.00000000     -13.95547581
Gd       0.00000000       0.00000000       1.58989899       0.00000000       0.00000000      13.95547581
2
Properties=species:S:1:pos:R:3:forces:R:3 energy=-13.491685826264312 pbc="F F F"
Gd       0.00000000       0.00000000       0.00000000       0.00000000       0.00000000      -8.63809586
Gd       0.00000000       0.00000000       1.64949495       0.00000000       0.00000000       8.63809586
2
Properties=species:S:1:pos:R:3:forces:R:3 energy=-13.867391004999515 pbc="F F F"
Gd       0.00000000       0.00000000       0.00000000       0.00000000       0.00000000      -4.21967030
Gd       0.00000000       0.00000000       1.70909091       0.00000000       0.00000000       4.21967030
2
Properties=species:S:1:pos:R:3:forces:R:3 energy=-14.028032179636837 pbc="F F F"
Gd       0.00000000       0.00000000       0.00000000       0.00000000       0.00000000      -1.43113911
Gd       0.00000000       0.00000000       1.76868687       0.00000000       0.00000000       1.43113911
2
Properties=species:S:1:pos:R:3:forces:R:3 energy=-14.065133195553438 pbc="F F F"
Gd       0.00000000       0.00000000       0.00000000       0.00000000       0.00000000      -0.03633309
Gd       0.00000000       0.00000000       1.82828283       0.00000000       0.00000000       0.03633309
2
Properties=species:S:1:pos:R:3:forces:R:3 energy=-14.062346200626772 pbc="F F F"
Gd       0.00000000       0.00000000       0.00000000       0.00000000       0.00000000      -0.15152892
Gd       0.00000000       0.00000000       1.88787879       0.00000000       0.00000000       0.15152892
2
Properties=species:S:1:pos:R:3:forces:R:3 energy=-14.116095864840057 pbc="F F F"
Gd       0.00000000       0.00000000       0.00000000       0.00000000       0.00000000      -1.88766313
Gd       0.00000000       0.00000000       1.94747475       0.00000000       0.00000000       1.88766313
2
Properties=species:S:1:pos:R:3:forces:R:3 energy=-14.30536985163276 pbc="F F F"
Gd       0.00000000       0.00000000       0.00000000       0.00000000       0.00000000      -4.51701260
Gd       0.00000000       0.00000000       2.00707071       0.00000000       0.00000000       4.51701260
2
Properties=species:S:1:pos:R:3:forces:R:3 energy=-14.649475763370233 pbc="F F F"
Gd       0.00000000       0.00000000       0.00000000       0.00000000       0.00000000      -6.90966415
Gd       0.00000000       0.00000000       2.06666667       0.00000000       0.00000000       6.90966415
2
Properties=species:S:1:pos:R:3:forces:R:3 energy=-15.108815562902494 pbc="F F F"
Gd       0.00000000       0.00000000       0.00000000       0.00000000       0.00000000      -8.31102467
Gd       0.00000000       0.00000000       2.12626263       0.00000000       0.00000000       8.31102467
2
Properties=species:S:1:pos:R:3:forces:R:3 energy=-15.617217981242066 pbc="F F F"
Gd       0.00000000       0.00000000       0.00000000       0.00000000       0.00000000      -8.57532120
Gd       0.00000000       0.00000000       2.18585859       0.00000000       0.00000000       8.57532120
2
Properties=species:S:1:pos:R:3:forces:R:3 energy=-16.11351846353487 pbc="F F F"
Gd       0.00000000       0.00000000       0.00000000       0.00000000       0.00000000      -7.96718931
Gd       0.00000000       0.00000000       2.24545455       0.00000000       0.00000000       7.96718931
2
Properties=species:S:1:pos:R:3:forces:R:3 energy=-16.557344399016678 pbc="F F F"
Gd       0.00000000       0.00000000       0.00000000       0.00000000       0.00000000      -6.87833977
Gd       0.00000000       0.00000000       2.30505051       0.00000000       0.00000000       6.87833977
2
Properties=species:S:1:pos:R:3:forces:R:3 energy=-16.93048458466017 pbc="F F F"
Gd       0.00000000       0.00000000       0.00000000       0.00000000       0.00000000      -5.64012623
Gd       0.00000000       0.00000000       2.36464646       0.00000000       0.00000000       5.64012623
2
Properties=species:S:1:pos:R:3:forces:R:3 energy=-17.230758065666066 pbc="F F F"
Gd       0.00000000       0.00000000       0.00000000       0.00000000       0.00000000      -4.45611477
Gd       0.00000000       0.00000000       2.42424242       0.00000000       0.00000000       4.45611477
2
Properties=species:S:1:pos:R:3:forces:R:3 energy=-17.464500148195434 pbc="F F F"
Gd       0.00000000       0.00000000       0.00000000       0.00000000       0.00000000      -3.41497231
Gd       0.00000000       0.00000000       2.48383838       0.00000000       0.00000000       3.41497231
2
Properties=species:S:1:pos:R:3:forces:R:3 energy=-17.641034776318918 pbc="F F F"
Gd       0.00000000       0.00000000       0.00000000       0.00000000       0.00000000      -2.53595495
Gd       0.00000000       0.00000000       2.54343434       0.00000000       0.00000000       2.53595495
2
Properties=species:S:1:pos:R:3:forces:R:3 energy=-17.76981938950453 pbc="F F F"
Gd       0.00000000       0.00000000       0.00000000       0.00000000       0.00000000      -1.81053162
Gd       0.00000000       0.00000000       2.60303030       0.00000000       0.00000000       1.81053162
2
Properties=species:S:1:pos:R:3:forces:R:3 energy=-17.859586546040788 pbc="F F F"
Gd       0.00000000       0.00000000       0.00000000       0.00000000       0.00000000      -1.22375190
Gd       0.00000000       0.00000000       2.66262626       0.00000000       0.00000000       1.22375190
2
Properties=species:S:1:pos:R:3:forces:R:3 energy=-17.918105434765536 pbc="F F F"
Gd       0.00000000       0.00000000       0.00000000       0.00000000       0.00000000      -0.75889063
Gd       0.00000000       0.00000000       2.72222222       0.00000000       0.00000000       0.75889063
2
Properties=species:S:1:pos:R:3:forces:R:3 energy=-17.95208088062307 pbc="F F F"
Gd       0.00000000       0.00000000       0.00000000       0.00000000       0.00000000      -0.39666721
Gd       0.00000000       0.00000000       2.78181818       0.00000000       0.00000000       0.39666721
2
Properties=species:S:1:pos:R:3:forces:R:3 energy=-17.96700071875963 pbc="F F F"
Gd       0.00000000       0.00000000       0.00000000       0.00000000       0.00000000      -0.11569793
Gd       0.00000000       0.00000000       2.84141414       0.00000000       0.00000000       0.11569793
2
Properties=species:S:1:pos:R:3:forces:R:3 energy=-17.967051883854868 pbc="F F F"
Gd       0.00000000       0.00000000       0.00000000       0.00000000       0.00000000       0.10580226
Gd       0.00000000       0.00000000       2.90101010       0.00000000       0.00000000      -0.10580226
2
Properties=species:S:1:pos:R:3:forces:R:3 energy=-17.955167948117836 pbc="F F F"
Gd       0.00000000       0.00000000       0.00000000       0.00000000       0.00000000       0.28800073
Gd       0.00000000       0.00000000       2.96060606       0.00000000       0.00000000      -0.28800073
2
Properties=species:S:1:pos:R:3:forces:R:3 energy=-17.933185770965014 pbc="F F F"
Gd       0.00000000       0.00000000       0.00000000       0.00000000       0.00000000       0.44673863
Gd       0.00000000       0.00000000       3.02020202       0.00000000       0.00000000      -0.44673863
2
Properties=species:S:1:pos:R:3:forces:R:3 energy=-17.902207768547637 pbc="F F F"
Gd       0.00000000       0.00000000       0.00000000       0.00000000       0.00000000       0.59064895
Gd       0.00000000       0.00000000       3.07979798       0.00000000       0.00000000      -0.59064895
2
Properties=species:S:1:pos:R:3:forces:R:3 energy=-17.86306538679821 pbc="F F F"
Gd       0.00000000       0.00000000       0.00000000       0.00000000       0.00000000       0.72025204
Gd       0.00000000       0.00000000       3.13939394       0.00000000       0.00000000      -0.72025204
2
Properties=species:S:1:pos:R:3:forces:R:3 energy=-17.816740473422872 pbc="F F F"
Gd       0.00000000       0.00000000       0.00000000       0.00000000       0.00000000       0.83064127
Gd       0.00000000       0.00000000       3.19898990       0.00000000       0.00000000      -0.83064127
2
Properties=species:S:1:pos:R:3:forces:R:3 energy=-17.764552527520927 pbc="F F F"
Gd       0.00000000       0.00000000       0.00000000       0.00000000       0.00000000       0.91638857
Gd       0.00000000       0.00000000       3.25858586       0.00000000       0.00000000      -0.91638857
2
Properties=species:S:1:pos:R:3:forces:R:3 energy=-17.70804784528094 pbc="F F F"
Gd       0.00000000       0.00000000       0.00000000       0.00000000       0.00000000       0.97548097
Gd       0.00000000       0.00000000       3.31818182       0.00000000       0.00000000      -0.97548097
2
Properties=species:S:1:pos:R:3:forces:R:3 energy=-17.64876699450995 pbc="F F F"
Gd       0.00000000       0.00000000       0.00000000       0.00000000       0.00000000       1.01023543
Gd       0.00000000       0.00000000       3.37777778       0.00000000       0.00000000      -1.01023543
2
Properties=species:S:1:pos:R:3:forces:R:3 energy=-17.58802133172552 pbc="F F F"
Gd       0.00000000       0.00000000       0.00000000       0.00000000       0.00000000       1.02554834
Gd       0.00000000       0.00000000       3.43737374       0.00000000       0.00000000      -1.02554834
2
Properties=species:S:1:pos:R:3:forces:R:3 energy=-17.526818983026505 pbc="F F F"
Gd       0.00000000       0.00000000       0.00000000       0.00000000       0.00000000       1.02626932
Gd       0.00000000       0.00000000       3.49696970       0.00000000       0.00000000      -1.02626932
2
Properties=species:S:1:pos:R:3:forces:R:3 energy=-17.465929738295998 pbc="F F F"
Gd       0.00000000       0.00000000       0.00000000       0.00000000       0.00000000       1.01529062
Gd       0.00000000       0.00000000       3.55656566       0.00000000       0.00000000      -1.01529062
2
Properties=species:S:1:pos:R:3:forces:R:3 energy=-17.406025852875423 pbc="F F F"
Gd       0.00000000       0.00000000       0.00000000       0.00000000       0.00000000       0.99308562
Gd       0.00000000       0.00000000       3.61616162       0.00000000       0.00000000      -0.99308562
2
Properties=species:S:1:pos:R:3:forces:R:3 energy=-17.347804466337447 pbc="F F F"
Gd       0.00000000       0.00000000       0.00000000       0.00000000       0.00000000       0.95864499
Gd       0.00000000       0.00000000       3.67575758       0.00000000       0.00000000      -0.95864499
2
Properties=species:S:1:pos:R:3:forces:R:3 energy=-17.292021991782164 pbc="F F F"
Gd       0.00000000       0.00000000       0.00000000       0.00000000       0.00000000       0.91124129
Gd       0.00000000       0.00000000       3.73535354       0.00000000       0.00000000      -0.91124129
2
Properties=species:S:1:pos:R:3:forces:R:3 energy=-17.239425261217004 pbc="F F F"
Gd       0.00000000       0.00000000       0.00000000       0.00000000       0.00000000       0.85222262
Gd       0.00000000       0.00000000       3.79494949       0.00000000       0.00000000      -0.85222262
2
Properties=species:S:1:pos:R:3:forces:R:3 energy=-17.19058938825164 pbc="F F F"
Gd       0.00000000       0.00000000       0.00000000       0.00000000       0.00000000       0.78598577
Gd       0.00000000       0.00000000       3.85454545       0.00000000       0.00000000      -0.78598577
2
Properties=species:S:1:pos:R:3:forces:R:3 energy=-17.145746467852774 pbc="F F F"
Gd       0.00000000       0.00000000       0.00000000       0.00000000       0.00000000       0.71953553
Gd       0.00000000       0.00000000       3.91414141       0.00000000       0.00000000      -0.71953553
2
Properties=species:S:1:pos:R:3:forces:R:3 energy=-17.10467462700555 pbc="F F F"
Gd       0.00000000       0.00000000       0.00000000       0.00000000       0.00000000       0.66070181
Gd       0.00000000       0.00000000       3.97373737       0.00000000       0.00000000      -0.66070181
2
Properties=species:S:1:pos:R:3:forces:R:3 energy=-17.066715539311716 pbc="F F F"
Gd       0.00000000       0.00000000       0.00000000       0.00000000       0.00000000       0.61591297
Gd       0.00000000       0.00000000       4.03333333       0.00000000       0.00000000      -0.61591297
2
Properties=species:S:1:pos:R:3:forces:R:3 energy=-17.030915410397316 pbc="F F F"
Gd       0.00000000       0.00000000       0.00000000       0.00000000       0.00000000       0.58852041
Gd       0.00000000       0.00000000       4.09292929       0.00000000       0.00000000      -0.58852041
2
Properties=species:S:1:pos:R:3:forces:R:3 energy=-16.996225395238984 pbc="F F F"
Gd       0.00000000       0.00000000       0.00000000       0.00000000       0.00000000       0.57830679
Gd       0.00000000       0.00000000       4.15252525       0.00000000       0.00000000      -0.57830679
2
Properties=species:S:1:pos:R:3:forces:R:3 energy=-16.961707667843992 pbc="F F F"
Gd       0.00000000       0.00000000       0.00000000       0.00000000       0.00000000       0.58202273
Gd       0.00000000       0.00000000       4.21212121       0.00000000       0.00000000      -0.58202273
2
Properties=species:S:1:pos:R:3:forces:R:3 energy=-16.92667843438386 pbc="F F F"
Gd       0.00000000       0.00000000       0.00000000       0.00000000       0.00000000       0.59451729
Gd       0.00000000       0.00000000       4.27171717       0.00000000       0.00000000      -0.59451729
2
Properties=species:S:1:pos:R:3:forces:R:3 energy=-16.89078628654376 pbc="F F F"
Gd       0.00000000       0.00000000       0.00000000       0.00000000       0.00000000       0.61002588
Gd       0.00000000       0.00000000       4.33131313       0.00000000       0.00000000      -0.61002588
2
Properties=species:S:1:pos:R:3:forces:R:3 energy=-16.85401408352858 pbc="F F F"
Gd       0.00000000       0.00000000       0.00000000       0.00000000       0.00000000       0.62330049
Gd       0.00000000       0.00000000       4.39090909       0.00000000       0.00000000      -0.62330049
2
Properties=species:S:1:pos:R:3:forces:R:3 energy=-16.816616117263973 pbc="F F F"
Gd       0.00000000       0.00000000       0.00000000       0.00000000       0.00000000       0.63043338
Gd       0.00000000       0.00000000       4.45050505       0.00000000       0.00000000      -0.63043338
2
Properties=species:S:1:pos:R:3:forces:R:3 energy=-16.77903799741816 pbc="F F F"
Gd       0.00000000       0.00000000       0.00000000       0.00000000       0.00000000       0.62924975
Gd       0.00000000       0.00000000       4.51010101       0.00000000       0.00000000      -0.62924975
2
Properties=species:S:1:pos:R:3:forces:R:3 energy=-16.741790772727793 pbc="F F F"
Gd       0.00000000       0.00000000       0.00000000       0.00000000       0.00000000       0.61929327
Gd       0.00000000       0.00000000       4.56969697       0.00000000       0.00000000      -0.61929327
2
Properties=species:S:1:pos:R:3:forces:R:3 energy=-16.705378559455866 pbc="F F F"
Gd       0.00000000       0.00000000       0.00000000       0.00000000       0.00000000       0.60146415
Gd       0.00000000       0.00000000       4.62929293       0.00000000       0.00000000      -0.60146415
2
Properties=species:S:1:pos:R:3:forces:R:3 energy=-16.67022407243166 pbc="F F F"
Gd       0.00000000       0.00000000       0.00000000       0.00000000       0.00000000       0.57749110
Gd       0.00000000       0.00000000       4.68888889       0.00000000       0.00000000      -0.57749110
2
Properties=species:S:1:pos:R:3:forces:R:3 energy=-16.636628640421534 pbc="F F F"
Gd       0.00000000       0.00000000       0.00000000       0.00000000       0.00000000       0.54939657
Gd       0.00000000       0.00000000       4.74848485       0.00000000       0.00000000      -0.54939657
2
Properties=species:S:1:pos:R:3:forces:R:3 energy=-16.604781609823572 pbc="F F F"
Gd       0.00000000       0.00000000       0.00000000       0.00000000       0.00000000       0.51915890
Gd       0.00000000       0.00000000       4.80808081       0.00000000       0.00000000      -0.51915890
2
Properties=species:S:1:pos:R:3:forces:R:3 energy=-16.574754723991987 pbc="F F F"
Gd       0.00000000       0.00000000       0.00000000       0.00000000       0.00000000       0.48855761
Gd       0.00000000       0.00000000       4.86767677       0.00000000       0.00000000      -0.48855761
2
Properties=species:S:1:pos:R:3:forces:R:3 energy=-16.54652297102354 pbc="F F F"
Gd       0.00000000       0.00000000       0.00000000       0.00000000       0.00000000       0.45921215
Gd       0.00000000       0.00000000       4.92727273       0.00000000       0.00000000      -0.45921215
2
Properties=species:S:1:pos:R:3:forces:R:3 energy=-16.51996642774975 pbc="F F F"
Gd       0.00000000       0.00000000       0.00000000       0.00000000       0.00000000       0.43257150
Gd       0.00000000       0.00000000       4.98686869       0.00000000       0.00000000      -0.43257150
2
Properties=species:S:1:pos:R:3:forces:R:3 energy=-16.494891221564913 pbc="F F F"
Gd       0.00000000       0.00000000       0.00000000       0.00000000       0.00000000       0.40974742
Gd       0.00000000       0.00000000       5.04646465       0.00000000       0.00000000      -0.40974742
2
Properties=species:S:1:pos:R:3:forces:R:3 energy=-16.47104458647454 pbc="F F F"
Gd       0.00000000       0.00000000       0.00000000       0.00000000       0.00000000       0.39120567
Gd       0.00000000       0.00000000       5.10606061       0.00000000       0.00000000      -0.39120567
2
Properties=species:S:1:pos:R:3:forces:R:3 energy=-16.448185485679943 pbc="F F F"
Gd       0.00000000       0.00000000       0.00000000       0.00000000       0.00000000       0.37631023
Gd       0.00000000       0.00000000       5.16565657       0.00000000       0.00000000      -0.37631023
2
Properties=species:S:1:pos:R:3:forces:R:3 energy=-16.42615880176992 pbc="F F F"
Gd       0.00000000       0.00000000       0.00000000       0.00000000       0.00000000       0.36283803
Gd       0.00000000       0.00000000       5.22525253       0.00000000       0.00000000      -0.36283803
2
Properties=species:S:1:pos:R:3:forces:R:3 energy=-16.404990609117746 pbc="F F F"
Gd       0.00000000       0.00000000       0.00000000       0.00000000       0.00000000       0.34678423
Gd       0.00000000       0.00000000       5.28484848       0.00000000       0.00000000      -0.34678423
2
Properties=species:S:1:pos:R:3:forces:R:3 energy=-16.38496250345705 pbc="F F F"
Gd       0.00000000       0.00000000       0.00000000       0.00000000       0.00000000       0.32399118
Gd       0.00000000       0.00000000       5.34444444       0.00000000       0.00000000      -0.32399118
2
Properties=species:S:1:pos:R:3:forces:R:3 energy=-16.36651610773729 pbc="F F F"
Gd       0.00000000       0.00000000       0.00000000       0.00000000       0.00000000       0.29421476
Gd       0.00000000       0.00000000       5.40404040       0.00000000       0.00000000      -0.29421476
2
Properties=species:S:1:pos:R:3:forces:R:3 energy=-16.349913488039377 pbc="F F F"
Gd       0.00000000       0.00000000       0.00000000       0.00000000       0.00000000       0.26333484
Gd       0.00000000       0.00000000       5.46363636       0.00000000       0.00000000      -0.26333484
2
Properties=species:S:1:pos:R:3:forces:R:3 energy=-16.3350386942832 pbc="F F F"
Gd       0.00000000       0.00000000       0.00000000       0.00000000       0.00000000       0.23669076
Gd       0.00000000       0.00000000       5.52323232       0.00000000       0.00000000      -0.23669076
2
Properties=species:S:1:pos:R:3:forces:R:3 energy=-16.321718175791005 pbc="F F F"
Gd       0.00000000       0.00000000       0.00000000       0.00000000       0.00000000       0.20976387
Gd       0.00000000       0.00000000       5.58282828       0.00000000       0.00000000      -0.20976387
2
Properties=species:S:1:pos:R:3:forces:R:3 energy=-16.31004869953243 pbc="F F F"
Gd       0.00000000       0.00000000       0.00000000       0.00000000       0.00000000       0.18269211
Gd       0.00000000       0.00000000       5.64242424       0.00000000       0.00000000      -0.18269211
2
Properties=species:S:1:pos:R:3:forces:R:3 energy=-16.29970885112101 pbc="F F F"
Gd       0.00000000       0.00000000       0.00000000       0.00000000       0.00000000       0.16687496
Gd       0.00000000       0.00000000       5.70202020       0.00000000       0.00000000      -0.16687496
2
Properties=species:S:1:pos:R:3:forces:R:3 energy=-16.28984454637891 pbc="F F F"
Gd       0.00000000       0.00000000       0.00000000       0.00000000       0.00000000       0.16599137
Gd       0.00000000       0.00000000       5.76161616       0.00000000       0.00000000      -0.16599137
2
Properties=species:S:1:pos:R:3:forces:R:3 energy=-16.280106546629767 pbc="F F F"
Gd       0.00000000       0.00000000       0.00000000       0.00000000       0.00000000       0.15558316
Gd       0.00000000       0.00000000       5.82121212       0.00000000       0.00000000      -0.15558316
2
Properties=species:S:1:pos:R:3:forces:R:3 energy=-16.272084873569618 pbc="F F F"
Gd       0.00000000       0.00000000       0.00000000       0.00000000       0.00000000       0.10883465
Gd       0.00000000       0.00000000       5.88080808       0.00000000       0.00000000      -0.10883465
2
Properties=species:S:1:pos:R:3:forces:R:3 energy=-16.267330825378195 pbc="F F F"
Gd       0.00000000       0.00000000       0.00000000       0.00000000       0.00000000       0.05182451
Gd       0.00000000       0.00000000       5.94040404       0.00000000       0.00000000      -0.05182451
2
Properties=species:S:1:pos:R:3:forces:R:3 energy=-16.26521890859366 pbc="F F F"
Gd       0.00000000       0.00000000       0.00000000       0.00000000       0.00000000       0.02710294
Gd       0.00000000       0.00000000       6.00000000       0.00000000       0.00000000      -0.02710294
