2
Properties=species:S:1:pos:R:3:forces:R:3 energy=12128.525572171342 pbc="F F F"
Gd       0.00000000       0.00000000       0.00000000       0.00000000       0.00000000 -209262.57812500
Gd       0.00000000       0.00000000       0.18000000       0.00000000       0.00000000  209262.57812500
2
Properties=species:S:1:pos:R:3:forces:R:3 energy=4772.667662015093 pbc="F F F"
Gd       0.00000000       0.00000000       0.00000000       0.00000000       0.00000000  -70195.28906250
Gd       0.00000000       0.00000000       0.23878788       0.00000000       0.00000000   70195.28906250
2
Properties=species:S:1:pos:R:3:forces:R:3 energy=2112.4906600619674 pbc="F F F"
Gd       0.00000000       0.00000000       0.00000000       0.00000000       0.00000000  -27722.72656250
Gd       0.00000000       0.00000000       0.29757576       0.00000000       0.00000000   27722.72656250
2
Properties=species:S:1:pos:R:3:forces:R:3 energy=1011.6238998080614 pbc="F F F"
Gd       0.00000000       0.00000000       0.00000000       0.00000000       0.00000000  -12114.90234375
Gd       0.00000000       0.00000000       0.35636364       0.00000000       0.00000000   12114.90234375
2
Properties=species:S:1:pos:R:3:forces:R:3 energy=514.524290439397 pbc="F F F"
Gd       0.00000000       0.00000000       0.00000000       0.00000000       0.00000000   -5687.15576172
Gd       0.00000000       0.00000000       0.41515152       0.00000000       0.00000000    5687.15576172
2
Properties=species:S:1:pos:R:3:forces:R:3 energy=275.01852262346705 pbc="F F F"
Gd       0.00000000       0.00000000       0.00000000       0.00000000       0.00000000   -2827.04199219
Gd       0.00000000       0.00000000       0.47393939       0.00000000       0.00000000    2827.04199219
2
Properties=species:S:1:pos:R:3:forces:R:3 energy=153.26234283290367 pbc="F F F"
Gd       0.00000000       0.00000000       0.00000000       0.00000000       0.00000000   -1476.30322266
Gd       0.00000000       0.00000000       0.53272727       0.00000000       0.00000000    1476.30322266
2
Properties=species:S:1:pos:R:3:forces:R:3 energy=88.4012283689644 pbc="F F F"
Gd       0.00000000       0.00000000       0.00000000       0.00000000       0.00000000    -805.17333984
Gd       0.00000000       0.00000000       0.59151515       0.00000000       0.00000000     805.17333984
2
Properties=species:S:1:pos:R:3:forces:R:3 energy=52.3992257035851 pbc="F F F"
Gd       0.00000000       0.00000000       0.00000000       0.00000000       0.00000000    -456.09036255
Gd       0.00000000       0.00000000       0.65030303       0.00000000       0.00000000     456.09036255
2
Properties=species:S:1:pos:R:3:forces:R:3 energy=31.696898057676993 pbc="F F F"
Gd       0.00000000       0.00000000       0.00000000       0.00000000       0.00000000    -266.76129150
Gd       0.00000000       0.00000000       0.70909091       0.00000000       0.00000000     266.76129150
2
Properties=species:S:1:pos:R:3:forces:R:3 energy=19.43686935794984 pbc="F F F"
Gd       0.00000000       0.00000000       0.00000000       0.00000000       0.00000000    -160.17239380
Gd       0.00000000       0.00000000       0.76787879       0.00000000       0.00000000     160.17239380
2
Properties=species:S:1:pos:R:3:forces:R:3 energy=12.000248835738894 pbc="F F F"
Gd       0.00000000       0.00000000       0.00000000       0.00000000       0.00000000     -98.26641846
Gd       0.00000000       0.00000000       0.82666667       0.00000000       0.00000000      98.26641846
2
Properties=species:S:1:pos:R:3:forces:R:3 energy=7.395713057988687 pbc="F F F"
Gd       0.00000000       0.00000000       0.00000000       0.00000000       0.00000000     -61.52346039
Gd       0.00000000       0.00000000       0.88545455       0.00000000       0.00000000      61.52346039
2
Properties=species:S:1:pos:R:3:forces:R:3 energy=4.478183378312893 pbc="F F F"
Gd       0.00000000       0.00000000       0.00000000       0.00000000       0.00000000     -39.65205765
Gd       0.00000000       0.00000000       0.94424242       0.00000000       0.00000000      39.65205765
2
Properties=species:S:1:pos:R:3:forces:R:3 energy=2.5500718868133605 pbc="F F F"
Gd       0.00000000       0.00000000       0.00000000       0.00000000       0.00000000     -27.23088264
Gd       0.00000000       0.00000000       1.00303030       0.00000000       0.00000000      27.23088264
2
Properties=species:S:1:pos:R:3:forces:R:3 energy=1.1459035200995646 pbc="F F F"
Gd       0.00000000       0.00000000       0.00000000       0.00000000       0.00000000     -21.52050972
Gd       0.00000000       0.00000000       1.06181818       0.00000000       0.00000000      21.52050972
2
Properties=species:S:1:pos:R:3:forces:R:3 energy=-0.08611112662371341 pbc="F F F"
Gd       0.00000000       0.00000000       0.00000000       0.00000000       0.00000000     -21.23313904
Gd       0.00000000       0.00000000       1.12060606       0.00000000       0.00000000      21.23313904
2
Properties=species:S:1:pos:R:3:forces:R:3 energy=-1.438812972984209 pbc="F F F"
Gd       0.00000000       0.00000000       0.00000000       0.00000000       0.00000000     -25.36697197
Gd       0.00000000       0.00000000       1.17939394       0.00000000       0.00000000      25.36697197
2
Properties=species:S:1:pos:R:3:forces:R:3 energy=-3.0958166674535073 pbc="F F F"
Gd       0.00000000       0.00000000       0.00000000       0.00000000       0.00000000     -30.82479477
Gd       0.00000000       0.00000000       1.23818182       0.00000000       0.00000000      30.82479477
2
Properties=species:S:1:pos:R:3:forces:R:3 energy=-5.010195622919502 pbc="F F F"
Gd       0.00000000       0.00000000       0.00000000       0.00000000       0.00000000     -33.75871277
Gd       0.00000000       0.00000000       1.29696970       0.00000000       0.00000000      33.75871277
2
Properties=species:S:1:pos:R:3:forces:R:3 energy=-7.004931591430439 pbc="F F F"
Gd       0.00000000       0.00000000       0.00000000       0.00000000       0.00000000     -33.61491013
Gd       0.00000000       0.00000000       1.35575758       0.00000000       0.00000000      33.61491013
2
Properties=species:S:1:pos:R:3:forces:R:3 energy=-8.904524517525482 pbc="F F F"
Gd       0.00000000       0.00000000       0.00000000       0.00000000       0.00000000     -30.53432846
Gd       0.00000000       0.00000000       1.41454545       0.00000000       0.00000000      30.53432846
2
Properties=species:S:1:pos:R:3:forces:R:3 energy=-10.550220911089404 pbc="F F F"
Gd       0.00000000       0.00000000       0.00000000       0.00000000       0.00000000     -25.21510887
Gd       0.00000000       0.00000000       1.47333333       0.00000000       0.00000000      25.21510887
2
Properties=species:S:1:pos:R:3:forces:R:3 energy=-11.859337972494766 pbc="F F F"
Gd       0.00000000       0.00000000       0.00000000       0.00000000       0.00000000     -19.35583305
Gd       0.00000000       0.00000000       1.53212121       0.00000000       0.00000000      19.35583305
2
Properties=species:S:1:pos:R:3:forces:R:3 energy=-12.834111922293724 pbc="F F F"
Gd       0.00000000       0.00000000       0.00000000       0.00000000       0.00000000     -13.86339664
Gd       0.00000000       0.00000000       1.59090909       0.00000000       0.00000000      13.86339664
2
Properties=species:S:1:pos:R:3:forces:R:3 energy=-13.493427210223492 pbc="F F F"
Gd       0.00000000       0.00000000       0.00000000       0.00000000       0.00000000      -8.62092972
Gd       0.00000000       0.00000000       1.64969697       0.00000000       0.00000000       8.62092972
2
Properties=species:S:1:pos:R:3:forces:R:3 energy=-13.864820000412792 pbc="F F F"
Gd       0.00000000       0.00000000       0.00000000       0.00000000       0.00000000      -4.25650167
Gd       0.00000000       0.00000000       1.70848485       0.00000000       0.00000000       4.25650167
2
Properties=species:S:1:pos:R:3:forces:R:3 energy=-14.025971580878721 pbc="F F F"
Gd       0.00000000       0.00000000       0.00000000       0.00000000       0.00000000      -1.48019242
Gd       0.00000000       0.00000000       1.76727273       0.00000000       0.00000000       1.48019242
2
Properties=species:S:1:pos:R:3:forces:R:3 energy=-14.065018333155273 pbc="F F F"
Gd       0.00000000       0.00000000       0.00000000       0.00000000       0.00000000      -0.06359435
Gd       0.00000000       0.00000000       1.82606061       0.00000000       0.00000000       0.06359435
2
Properties=species:S:1:pos:R:3:forces:R:3 energy=-14.061961777850568 pbc="F F F"
Gd       0.00000000       0.00000000       0.00000000       0.00000000       0.00000000      -0.10438138
Gd       0.00000000       0.00000000       1.88484848       0.00000000       0.00000000       0.10438138
2
Properties=species:S:1:pos:R:3:forces:R:3 energy=-14.109138195824677 pbc="F F F"
Gd       0.00000000       0.00000000       0.00000000       0.00000000       0.00000000      -1.73710561
Gd       0.00000000       0.00000000       1.94363636       0.00000000       0.00000000       1.73710561
2
Properties=species:S:1:pos:R:3:forces:R:3 energy=-14.284867678495583 pbc="F F F"
Gd       0.00000000       0.00000000       0.00000000       0.00000000       0.00000000      -4.30677891
Gd       0.00000000       0.00000000       2.00242424       0.00000000       0.00000000       4.30677891
2
Properties=species:S:1:pos:R:3:forces:R:3 energy=-14.612288788642795 pbc="F F F"
Gd       0.00000000       0.00000000       0.00000000       0.00000000       0.00000000      -6.72505426
Gd       0.00000000       0.00000000       2.06121212       0.00000000       0.00000000       6.72505426
2
Properties=species:S:1:pos:R:3:forces:R:3 energy=-15.057047756853542 pbc="F F F"
Gd       0.00000000       0.00000000       0.00000000       0.00000000       0.00000000      -8.21910954
Gd       0.00000000       0.00000000       2.12000000       0.00000000       0.00000000       8.21910954
2
Properties=species:S:1:pos:R:3:forces:R:3 energy=-15.556501940789266 pbc="F F F"
Gd       0.00000000       0.00000000       0.00000000       0.00000000       0.00000000      -8.59689426
Gd       0.00000000       0.00000000       2.17878788       0.00000000       0.00000000       8.59689426
2
Properties=species:S:1:pos:R:3:forces:R:3 energy=-16.050282168982708 pbc="F F F"
Gd       0.00000000       0.00000000       0.00000000       0.00000000       0.00000000      -8.08357143
Gd       0.00000000       0.00000000       2.23757576       0.00000000       0.00000000       8.08357143
2
Properties=species:S:1:pos:R:3:forces:R:3 energy=-16.496831424189455 pbc="F F F"
Gd       0.00000000       0.00000000       0.00000000       0.00000000       0.00000000      -7.05291414
Gd       0.00000000       0.00000000       2.29636364       0.00000000       0.00000000       7.05291414
2
Properties=species:S:1:pos:R:3:forces:R:3 energy=-16.875996860487863 pbc="F F F"
Gd       0.00000000       0.00000000       0.00000000       0.00000000       0.00000000      -5.83747959
Gd       0.00000000       0.00000000       2.35515152       0.00000000       0.00000000       5.83747959
2
Properties=species:S:1:pos:R:3:forces:R:3 energy=-17.18384088666604 pbc="F F F"
Gd       0.00000000       0.00000000       0.00000000       0.00000000       0.00000000      -4.65191031
Gd       0.00000000       0.00000000       2.41393939       0.00000000       0.00000000       4.65191031
2
Properties=species:S:1:pos:R:3:forces:R:3 energy=-17.42555254937754 pbc="F F F"
Gd       0.00000000       0.00000000       0.00000000       0.00000000       0.00000000      -3.59679151
Gd       0.00000000       0.00000000       2.47272727       0.00000000       0.00000000       3.59679151
2
Properties=species:S:1:pos:R:3:forces:R:3 energy=-17.60983978877669 pbc="F F F"
Gd       0.00000000       0.00000000       0.00000000       0.00000000       0.00000000      -2.69903374
Gd       0.00000000       0.00000000       2.53151515       0.00000000       0.00000000       2.69903374
2
Properties=species:S:1:pos:R:3:forces:R:3 energy=-17.74587591274166 pbc="F F F"
Gd       0.00000000       0.00000000       0.00000000       0.00000000       0.00000000      -1.95327473
Gd       0.00000000       0.00000000       2.59030303       0.00000000       0.00000000       1.95327473
2
Properties=species:S:1:pos:R:3:forces:R:3 energy=-17.84220466471761 pbc="F F F"
Gd       0.00000000       0.00000000       0.00000000       0.00000000       0.00000000      -1.34567988
Gd       0.00000000       0.00000000       2.64909091       0.00000000       0.00000000       1.34567988
2
Properties=species:S:1:pos:R:3:forces:R:3 energy=-17.90649812348886 pbc="F F F"
Gd       0.00000000       0.00000000       0.00000000       0.00000000       0.00000000      -0.86062223
Gd       0.00000000       0.00000000       2.70787879       0.00000000       0.00000000       0.86062223
2
Properties=species:S:1:pos:R:3:forces:R:3 energy=-17.945443973204583 pbc="F F F"
Gd       0.00000000       0.00000000       0.00000000       0.00000000       0.00000000      -0.48018724
Gd       0.00000000       0.00000000       2.76666667       0.00000000       0.00000000       0.48018724
2
Properties=species:S:1:pos:R:3:forces:R:3 energy=-17.964612153701257 pbc="F F F"
Gd       0.00000000       0.00000000       0.00000000       0.00000000       0.00000000      -0.18421987
Gd       0.00000000       0.00000000       2.82545455       0.00000000       0.00000000       0.18421987
2
Properties=species:S:1:pos:R:3:forces:R:3 energy=-17.968347985622785 pbc="F F F"
Gd       0.00000000       0.00000000       0.00000000       0.00000000       0.00000000       0.04827363
Gd       0.00000000       0.00000000       2.88424242       0.00000000       0.00000000      -0.04827363
2
Properties=species:S:1:pos:R:3:forces:R:3 energy=-17.959787384860054 pbc="F F F"
Gd       0.00000000       0.00000000       0.00000000       0.00000000       0.00000000       0.23730226
Gd       0.00000000       0.00000000       2.94303030       0.00000000       0.00000000      -0.23730226
2
Properties=species:S:1:pos:R:3:forces:R:3 energy=-17.94096758380629 pbc="F F F"
Gd       0.00000000       0.00000000       0.00000000       0.00000000       0.00000000       0.39959034
Gd       0.00000000       0.00000000       3.00181818       0.00000000       0.00000000      -0.39959034
2
Properties=species:S:1:pos:R:3:forces:R:3 energy=-17.913114988945157 pbc="F F F"
Gd       0.00000000       0.00000000       0.00000000       0.00000000       0.00000000       0.54574192
Gd       0.00000000       0.00000000       3.06060606       0.00000000       0.00000000      -0.54574192
2
Properties=species:S:1:pos:R:3:forces:R:3 energy=-17.87705740890993 pbc="F F F"
Gd       0.00000000       0.00000000       0.00000000       0.00000000       0.00000000       0.67859608
Gd       0.00000000       0.00000000       3.11939394       0.00000000       0.00000000      -0.67859608
2
Properties=species:S:1:pos:R:3:forces:R:3 energy=-17.833656705840923 pbc="F F F"
Gd       0.00000000       0.00000000       0.00000000       0.00000000       0.00000000       0.79466653
Gd       0.00000000       0.00000000       3.17818182       0.00000000       0.00000000      -0.79466653
2
Properties=species:S:1:pos:R:3:forces:R:3 energy=-17.784064614521128 pbc="F F F"
Gd       0.00000000       0.00000000       0.00000000       0.00000000       0.00000000       0.88836020
Gd       0.00000000       0.00000000       3.23696970       0.00000000       0.00000000      -0.88836020
2
Properties=species:S:1:pos:R:3:forces:R:3 energy=-17.729713173954828 pbc="F F F"
Gd       0.00000000       0.00000000       0.00000000       0.00000000       0.00000000       0.95630926
Gd       0.00000000       0.00000000       3.29575758       0.00000000       0.00000000      -0.95630926
2
Properties=species:S:1:pos:R:3:forces:R:3 energy=-17.67211627441077 pbc="F F F"
Gd       0.00000000       0.00000000       0.00000000       0.00000000       0.00000000       0.99929565
Gd       0.00000000       0.00000000       3.35454545       0.00000000       0.00000000      -0.99929565
2
Properties=species:S:1:pos:R:3:forces:R:3 energy=-17.612631346549005 pbc="F F F"
Gd       0.00000000       0.00000000       0.00000000       0.00000000       0.00000000       1.02137029
Gd       0.00000000       0.00000000       3.41333333       0.00000000       0.00000000      -1.02137029
2
Properties=species:S:1:pos:R:3:forces:R:3 energy=-17.552339097086723 pbc="F F F"
Gd       0.00000000       0.00000000       0.00000000       0.00000000       0.00000000       1.02749836
Gd       0.00000000       0.00000000       3.47212121       0.00000000       0.00000000      -1.02749836
2
Properties=species:S:1:pos:R:3:forces:R:3 energy=-17.492060807984473 pbc="F F F"
Gd       0.00000000       0.00000000       0.00000000       0.00000000       0.00000000       1.02137089
Gd       0.00000000       0.00000000       3.53090909       0.00000000       0.00000000      -1.02137089
2
Properties=species:S:1:pos:R:3:forces:R:3 energy=-17.43246138395749 pbc="F F F"
Gd       0.00000000       0.00000000       0.00000000       0.00000000       0.00000000       1.00438106
Gd       0.00000000       0.00000000       3.58969697       0.00000000       0.00000000      -1.00438106
2
Properties=species:S:1:pos:R:3:forces:R:3 energy=-17.374192245232052 pbc="F F F"
Gd       0.00000000       0.00000000       0.00000000       0.00000000       0.00000000       0.97600198
Gd       0.00000000       0.00000000       3.64848485       0.00000000       0.00000000      -0.97600198
2
Properties=species:S:1:pos:R:3:forces:R:3 energy=-17.317954631182083 pbc="F F F"
Gd       0.00000000       0.00000000       0.00000000       0.00000000       0.00000000       0.93517321
Gd       0.00000000       0.00000000       3.70727273       0.00000000       0.00000000      -0.93517321
2
Properties=species:S:1:pos:R:3:forces:R:3 energy=-17.26448008334772 pbc="F F F"
Gd       0.00000000       0.00000000       0.00000000       0.00000000       0.00000000       0.88207841
Gd       0.00000000       0.00000000       3.76606061       0.00000000       0.00000000      -0.88207841
2
Properties=species:S:1:pos:R:3:forces:R:3 energy=-17.21442976143903 pbc="F F F"
Gd       0.00000000       0.00000000       0.00000000       0.00000000       0.00000000       0.81950366
Gd       0.00000000       0.00000000       3.82484848       0.00000000       0.00000000      -0.81950366
2
Properties=species:S:1:pos:R:3:forces:R:3 energy=-17.168203543745943 pbc="F F F"
Gd       0.00000000       0.00000000       0.00000000       0.00000000       0.00000000       0.75308388
Gd       0.00000000       0.00000000       3.88363636       0.00000000       0.00000000      -0.75308388
2
Properties=species:S:1:pos:R:3:forces:R:3 energy=-17.12581618886133 pbc="F F F"
Gd       0.00000000       0.00000000       0.00000000       0.00000000       0.00000000       0.69021332
Gd       0.00000000       0.00000000       3.94242424       0.00000000       0.00000000      -0.69021332
2
Properties=species:S:1:pos:R:3:forces:R:3 energy=-17.086841984556752 pbc="F F F"
Gd       0.00000000       0.00000000       0.00000000       0.00000000       0.00000000       0.63802177
Gd       0.00000000       0.00000000       4.00121212       0.00000000       0.00000000      -0.63802177
2
Properties=species:S:1:pos:R:3:forces:R:3 energy=-17.05049114309811 pbc="F F F"
Gd       0.00000000       0.00000000       0.00000000       0.00000000       0.00000000       0.60143614
Gd       0.00000000       0.00000000       4.06000000       0.00000000       0.00000000      -0.60143614
2
Properties=species:S:1:pos:R:3:forces:R:3 energy=-17.015787210011055 pbc="F F F"
Gd       0.00000000       0.00000000       0.00000000       0.00000000       0.00000000       0.58211035
Gd       0.00000000       0.00000000       4.11878788       0.00000000       0.00000000      -0.58211035
2
Properties=species:S:1:pos:R:3:forces:R:3 energy=-16.98174068349174 pbc="F F F"
Gd       0.00000000       0.00000000       0.00000000       0.00000000       0.00000000       0.57844001
Gd       0.00000000       0.00000000       4.17757576       0.00000000       0.00000000      -0.57844001
2
Properties=species:S:1:pos:R:3:forces:R:3 energy=-16.94754744202106 pbc="F F F"
Gd       0.00000000       0.00000000       0.00000000       0.00000000       0.00000000       0.58637315
Gd       0.00000000       0.00000000       4.23636364       0.00000000       0.00000000      -0.58637315
2
Properties=species:S:1:pos:R:3:forces:R:3 energy=-16.912674606731375 pbc="F F F"
Gd       0.00000000       0.00000000       0.00000000       0.00000000       0.00000000       0.60056919
Gd       0.00000000       0.00000000       4.29515152       0.00000000       0.00000000      -0.60056919
2
Properties=species:S:1:pos:R:3:forces:R:3 energy=-16.87691976424876 pbc="F F F"
Gd       0.00000000       0.00000000       0.00000000       0.00000000       0.00000000       0.61557615
Gd       0.00000000       0.00000000       4.35393939       0.00000000       0.00000000      -0.61557615
2
Properties=species:S:1:pos:R:3:forces:R:3 energy=-16.840374676383856 pbc="F F F"
Gd       0.00000000       0.00000000       0.00000000       0.00000000       0.00000000       0.62678003
Gd       0.00000000       0.00000000       4.41272727       0.00000000       0.00000000      -0.62678003
2
Properties=species:S:1:pos:R:3:forces:R:3 energy=-16.803362489682435 pbc="F F F"
Gd       0.00000000       0.00000000       0.00000000       0.00000000       0.00000000       0.63102221
Gd       0.00000000       0.00000000       4.47151515       0.00000000       0.00000000      -0.63102221
2
Properties=species:S:1:pos:R:3:forces:R:3 energy=-16.76634613834151 pbc="F F F"
Gd       0.00000000       0.00000000       0.00000000       0.00000000       0.00000000       0.62683743
Gd       0.00000000       0.00000000       4.53030303       0.00000000       0.00000000      -0.62683743
2
Properties=species:S:1:pos:R:3:forces:R:3 energy=-16.729827273738753 pbc="F F F"
Gd       0.00000000       0.00000000       0.00000000       0.00000000       0.00000000       0.61428189
Gd       0.00000000       0.00000000       4.58909091       0.00000000       0.00000000      -0.61428189
2
Properties=species:S:1:pos:R:3:forces:R:3 energy=-16.694264362482848 pbc="F F F"
Gd       0.00000000       0.00000000       0.00000000       0.00000000       0.00000000       0.59455466
Gd       0.00000000       0.00000000       4.64787879       0.00000000       0.00000000      -0.59455466
2
Properties=species:S:1:pos:R:3:forces:R:3 energy=-16.660026764326513 pbc="F F F"
Gd       0.00000000       0.00000000       0.00000000       0.00000000       0.00000000       0.56945103
Gd       0.00000000       0.00000000       4.70666667       0.00000000       0.00000000      -0.56945103
2
Properties=species:S:1:pos:R:3:forces:R:3 energy=-16.627377680070392 pbc="F F F"
Gd       0.00000000       0.00000000       0.00000000       0.00000000       0.00000000       0.54092824
Gd       0.00000000       0.00000000       4.76545455       0.00000000       0.00000000      -0.54092824
2
Properties=species:S:1:pos:R:3:forces:R:3 energy=-16.596456896726327 pbc="F F F"
Gd       0.00000000       0.00000000       0.00000000       0.00000000       0.00000000       0.51082462
Gd       0.00000000       0.00000000       4.82424242       0.00000000       0.00000000      -0.51082462
2
Properties=species:S:1:pos:R:3:forces:R:3 energy=-16.567315138799707 pbc="F F F"
Gd       0.00000000       0.00000000       0.00000000       0.00000000       0.00000000       0.48081735
Gd       0.00000000       0.00000000       4.88303030       0.00000000       0.00000000      -0.48081735
2
Properties=species:S:1:pos:R:3:forces:R:3 energy=-16.53989483641201 pbc="F F F"
Gd       0.00000000       0.00000000       0.00000000       0.00000000       0.00000000       0.45240986
Gd       0.00000000       0.00000000       4.94181818       0.00000000       0.00000000      -0.45240986
2
Properties=species:S:1:pos:R:3:forces:R:3 energy=-16.514064482918783 pbc="F F F"
Gd       0.00000000       0.00000000       0.00000000       0.00000000       0.00000000       0.42693877
Gd       0.00000000       0.00000000       5.00060606       0.00000000       0.00000000      -0.42693877
2
Properties=species:S:1:pos:R:3:forces:R:3 energy=-16.489618596895767 pbc="F F F"
Gd       0.00000000       0.00000000       0.00000000       0.00000000       0.00000000       0.40536141
Gd       0.00000000       0.00000000       5.05939394       0.00000000       0.00000000      -0.40536141
2
Properties=species:S:1:pos:R:3:forces:R:3 energy=-16.466321388416848 pbc="F F F"
Gd       0.00000000       0.00000000       0.00000000       0.00000000       0.00000000       0.38792512
Gd       0.00000000       0.00000000       5.11818182       0.00000000       0.00000000      -0.38792512
2
Properties=species:S:1:pos:R:3:forces:R:3 energy=-16.443944887019764 pbc="F F F"
Gd       0.00000000       0.00000000       0.00000000       0.00000000       0.00000000       0.37374219
Gd       0.00000000       0.00000000       5.17696970       0.00000000       0.00000000      -0.37374219
2
Properties=species:S:1:pos:R:3:forces:R:3 energy=-16.422362338432684 pbc="F F F"
Gd       0.00000000       0.00000000       0.00000000       0.00000000       0.00000000       0.36032885
Gd       0.00000000       0.00000000       5.23575758       0.00000000       0.00000000      -0.36032885
2
Properties=species:S:1:pos:R:3:forces:R:3 energy=-16.401643381936513 pbc="F F F"
Gd       0.00000000       0.00000000       0.00000000       0.00000000       0.00000000       0.34360927
Gd       0.00000000       0.00000000       5.29454545       0.00000000       0.00000000      -0.34360927
2
Properties=species:S:1:pos:R:3:forces:R:3 energy=-16.382101746751996 pbc="F F F"
Gd       0.00000000       0.00000000       0.00000000       0.00000000       0.00000000       0.31991854
Gd       0.00000000       0.00000000       5.35333333       0.00000000       0.00000000      -0.31991854
2
Properties=species:S:1:pos:R:3:forces:R:3 energy=-16.36415778988964 pbc="F F F"
Gd       0.00000000       0.00000000       0.00000000       0.00000000       0.00000000       0.28990313
Gd       0.00000000       0.00000000       5.41212121       0.00000000       0.00000000      -0.28990313
2
Properties=species:S:1:pos:R:3:forces:R:3 energy=-16.34801602118222 pbc="F F F"
Gd       0.00000000       0.00000000       0.00000000       0.00000000       0.00000000       0.25985208
Gd       0.00000000       0.00000000       5.47090909       0.00000000       0.00000000      -0.25985208
2
Properties=species:S:1:pos:R:3:forces:R:3 energy=-16.33351443224627 pbc="F F F"
Gd       0.00000000       0.00000000       0.00000000       0.00000000       0.00000000       0.23391272
Gd       0.00000000       0.00000000       5.52969697       0.00000000       0.00000000      -0.23391272
2
Properties=species:S:1:pos:R:3:forces:R:3 energy=-16.320538311939842 pbc="F F F"
Gd       0.00000000       0.00000000       0.00000000       0.00000000       0.00000000       0.20707928
Gd       0.00000000       0.00000000       5.58848485       0.00000000       0.00000000      -0.20707928
2
Properties=species:S:1:pos:R:3:forces:R:3 energy=-16.30917085087676 pbc="F F F"
Gd       0.00000000       0.00000000       0.00000000       0.00000000       0.00000000       0.18081507
Gd       0.00000000       0.00000000       5.64727273       0.00000000       0.00000000      -0.18081507
2
Properties=species:S:1:pos:R:3:forces:R:3 energy=-16.299044585870675 pbc="F F F"
Gd       0.00000000       0.00000000       0.00000000       0.00000000       0.00000000       0.16638128
Gd       0.00000000       0.00000000       5.70606061       0.00000000       0.00000000      -0.16638128
2
Properties=species:S:1:pos:R:3:forces:R:3 energy=-16.289288054361972 pbc="F F F"
Gd       0.00000000       0.00000000       0.00000000       0.00000000       0.00000000       0.16615936
Gd       0.00000000       0.00000000       5.76484848       0.00000000       0.00000000      -0.16615936
2
Properties=species:S:1:pos:R:3:forces:R:3 energy=-16.27971782078899 pbc="F F F"
Gd       0.00000000       0.00000000       0.00000000       0.00000000       0.00000000       0.15453166
Gd       0.00000000       0.00000000       5.82363636       0.00000000       0.00000000      -0.15453166
2
Properties=species:S:1:pos:R:3:forces:R:3 energy=-16.27189510338112 pbc="F F F"
Gd       0.00000000       0.00000000       0.00000000       0.00000000       0.00000000       0.10726241
Gd       0.00000000       0.00000000       5.88242424       0.00000000       0.00000000      -0.10726241
2
Properties=species:S:1:pos:R:3:forces:R:3 energy=-16.26729482717723 pbc="F F F"
Gd       0.00000000       0.00000000       0.00000000       0.00000000       0.00000000       0.05114563
Gd       0.00000000       0.00000000       5.94121212       0.00000000       0.00000000      -0.05114563
2
Properties=species:S:1:pos:R:3:forces:R:3 energy=-16.26521890859366 pbc="F F F"
Gd       0.00000000       0.00000000       0.00000000       0.00000000       0.00000000       0.02710294
Gd       0.00000000       0.00000000       6.00000000       0.00000000       0.00000000      -0.02710294
