2
Properties=species:S:1:pos:R:3:forces:R:3 energy=58.14430630057076 pbc="F F F"
He       0.00000000       0.00000000       0.00000000       0.00000000       0.00000000    -724.23022461
He       0.00000000       0.00000000       0.18000000       0.00000000       0.00000000     724.23022461
2
Properties=species:S:1:pos:R:3:forces:R:3 energy=28.66508686412324 pbc="F F F"
He       0.00000000       0.00000000       0.00000000       0.00000000       0.00000000    -341.27612305
He       0.00000000       0.00000000       0.23878788       0.00000000       0.00000000     341.27612305
2
Properties=species:S:1:pos:R:3:forces:R:3 energy=14.082529187088518 pbc="F F F"
He       0.00000000       0.00000000       0.00000000       0.00000000       0.00000000    -173.04835510
He       0.00000000       0.00000000       0.29757576       0.00000000       0.00000000     173.04835510
2
Properties=species:S:1:pos:R:3:forces:R:3 energy=6.714588763888565 pbc="F F F"
He       0.00000000       0.00000000       0.00000000       0.00000000       0.00000000     -85.16606140
He       0.00000000       0.00000000       0.35636364       0.00000000       0.00000000      85.16606140
2
Properties=species:S:1:pos:R:3:forces:R:3 energy=3.2423375931921137 pbc="F F F"
He       0.00000000       0.00000000       0.00000000       0.00000000       0.00000000     -38.62759399
He       0.00000000       0.00000000       0.41515152       0.00000000       0.00000000      38.62759399
2
Properties=species:S:1:pos:R:3:forces:R:3 energy=1.751905820180912 pbc="F F F"
He       0.00000000       0.00000000       0.00000000       0.00000000       0.00000000     -14.60984039
He       0.00000000       0.00000000       0.47393939       0.00000000       0.00000000      14.60984039
2
Properties=species:S:1:pos:R:3:forces:R:3 energy=1.3048615901942962 pbc="F F F"
He       0.00000000       0.00000000       0.00000000       0.00000000       0.00000000      -2.19122553
He       0.00000000       0.00000000       0.53272727       0.00000000       0.00000000       2.19122553
2
Properties=species:S:1:pos:R:3:forces:R:3 energy=1.3114525931919905 pbc="F F F"
He       0.00000000       0.00000000       0.00000000       0.00000000       0.00000000       1.70301831
He       0.00000000       0.00000000       0.59151515       0.00000000       0.00000000      -1.70301831
2
Properties=species:S:1:pos:R:3:forces:R:3 energy=1.5039450255533529 pbc="F F F"
He       0.00000000       0.00000000       0.00000000       0.00000000       0.00000000       4.84036779
He       0.00000000       0.00000000       0.65030303       0.00000000       0.00000000      -4.84036779
2
Properties=species:S:1:pos:R:3:forces:R:3 energy=1.867726940294285 pbc="F F F"
He       0.00000000       0.00000000       0.00000000       0.00000000       0.00000000       7.28701401
He       0.00000000       0.00000000       0.70909091       0.00000000       0.00000000      -7.28701401
2
Properties=species:S:1:pos:R:3:forces:R:3 energy=2.311118660886532 pbc="F F F"
He       0.00000000       0.00000000       0.00000000       0.00000000       0.00000000       7.23635435
He       0.00000000       0.00000000       0.76787879       0.00000000       0.00000000      -7.23635435
2
Properties=species:S:1:pos:R:3:forces:R:3 energy=2.655289226270383 pbc="F F F"
He       0.00000000       0.00000000       0.00000000       0.00000000       0.00000000       4.09159994
He       0.00000000       0.00000000       0.82666667       0.00000000       0.00000000      -4.09159994
2
Properties=species:S:1:pos:R:3:forces:R:3 energy=2.7763349112070785 pbc="F F F"
He       0.00000000       0.00000000       0.00000000       0.00000000       0.00000000       0.09768082
He       0.00000000       0.00000000       0.88545455       0.00000000       0.00000000      -0.09768082
2
Properties=species:S:1:pos:R:3:forces:R:3 energy=2.6860236117011302 pbc="F F F"
He       0.00000000       0.00000000       0.00000000       0.00000000       0.00000000      -2.96962690
He       0.00000000       0.00000000       0.94424242       0.00000000       0.00000000       2.96962690
2
Properties=species:S:1:pos:R:3:forces:R:3 energy=2.451270879039298 pbc="F F F"
He       0.00000000       0.00000000       0.00000000       0.00000000       0.00000000      -4.81363630
He       0.00000000       0.00000000       1.00303030       0.00000000       0.00000000       4.81363630
2
Properties=species:S:1:pos:R:3:forces:R:3 energy=2.142282449017487 pbc="F F F"
He       0.00000000       0.00000000       0.00000000       0.00000000       0.00000000      -5.53361702
He       0.00000000       0.00000000       1.06181818       0.00000000       0.00000000       5.53361702
2
Properties=species:S:1:pos:R:3:forces:R:3 energy=1.81601598066244 pbc="F F F"
He       0.00000000       0.00000000       0.00000000       0.00000000       0.00000000      -5.47007561
He       0.00000000       0.00000000       1.12060606       0.00000000       0.00000000       5.47007561
2
Properties=species:S:1:pos:R:3:forces:R:3 energy=1.506974761812274 pbc="F F F"
He       0.00000000       0.00000000       0.00000000       0.00000000       0.00000000      -5.00108242
He       0.00000000       0.00000000       1.17939394       0.00000000       0.00000000       5.00108242
2
Properties=species:S:1:pos:R:3:forces:R:3 energy=1.2310314679710173 pbc="F F F"
He       0.00000000       0.00000000       0.00000000       0.00000000       0.00000000      -4.37392426
He       0.00000000       0.00000000       1.23818182       0.00000000       0.00000000       4.37392426
2
Properties=species:S:1:pos:R:3:forces:R:3 energy=0.993230709223882 pbc="F F F"
He       0.00000000       0.00000000       0.00000000       0.00000000       0.00000000      -3.71814537
He       0.00000000       0.00000000       1.29696970       0.00000000       0.00000000       3.71814537
2
Properties=species:S:1:pos:R:3:forces:R:3 energy=0.7931627461956573 pbc="F F F"
He       0.00000000       0.00000000       0.00000000       0.00000000       0.00000000      -3.09737015
He       0.00000000       0.00000000       1.35575758       0.00000000       0.00000000       3.09737015
2
Properties=species:S:1:pos:R:3:forces:R:3 energy=0.6277823749909315 pbc="F F F"
He       0.00000000       0.00000000       0.00000000       0.00000000       0.00000000      -2.54104042
He       0.00000000       0.00000000       1.41454545       0.00000000       0.00000000       2.54104042
2
Properties=species:S:1:pos:R:3:forces:R:3 energy=0.4929181757114896 pbc="F F F"
He       0.00000000       0.00000000       0.00000000       0.00000000       0.00000000      -2.05984402
He       0.00000000       0.00000000       1.47333333       0.00000000       0.00000000       2.05984402
2
Properties=species:S:1:pos:R:3:forces:R:3 energy=0.38411401112823546 pbc="F F F"
He       0.00000000       0.00000000       0.00000000       0.00000000       0.00000000      -1.65391624
He       0.00000000       0.00000000       1.53212121       0.00000000       0.00000000       1.65391624
2
Properties=species:S:1:pos:R:3:forces:R:3 energy=0.2970900389052012 pbc="F F F"
He       0.00000000       0.00000000       0.00000000       0.00000000       0.00000000      -1.31767333
He       0.00000000       0.00000000       1.59090909       0.00000000       0.00000000       1.31767333
2
Properties=species:S:1:pos:R:3:forces:R:3 energy=0.22798278242564163 pbc="F F F"
He       0.00000000       0.00000000       0.00000000       0.00000000       0.00000000      -1.04292166
He       0.00000000       0.00000000       1.64969697       0.00000000       0.00000000       1.04292166
2
Properties=species:S:1:pos:R:3:forces:R:3 energy=0.17343756210095282 pbc="F F F"
He       0.00000000       0.00000000       0.00000000       0.00000000       0.00000000      -0.82073146
He       0.00000000       0.00000000       1.70848485       0.00000000       0.00000000       0.82073146
2
Properties=species:S:1:pos:R:3:forces:R:3 energy=0.13062381099253512 pbc="F F F"
He       0.00000000       0.00000000       0.00000000       0.00000000       0.00000000      -0.64250737
He       0.00000000       0.00000000       1.76727273       0.00000000       0.00000000       0.64250737
2
Properties=species:S:1:pos:R:3:forces:R:3 energy=0.09718673188108036 pbc="F F F"
He       0.00000000       0.00000000       0.00000000       0.00000000       0.00000000      -0.50048459
He       0.00000000       0.00000000       1.82606061       0.00000000       0.00000000       0.50048459
2
Properties=species:S:1:pos:R:3:forces:R:3 energy=0.07120181585378055 pbc="F F F"
He       0.00000000       0.00000000       0.00000000       0.00000000       0.00000000      -0.38793972
He       0.00000000       0.00000000       1.88484848       0.00000000       0.00000000       0.38793972
2
Properties=species:S:1:pos:R:3:forces:R:3 energy=0.05110830914056694 pbc="F F F"
He       0.00000000       0.00000000       0.00000000       0.00000000       0.00000000      -0.29919124
He       0.00000000       0.00000000       1.94363636       0.00000000       0.00000000       0.29919124
2
Properties=species:S:1:pos:R:3:forces:R:3 energy=0.03565059414984863 pbc="F F F"
He       0.00000000       0.00000000       0.00000000       0.00000000       0.00000000      -0.22952564
He       0.00000000       0.00000000       2.00242424       0.00000000       0.00000000       0.22952564
2
Properties=species:S:1:pos:R:3:forces:R:3 energy=0.02382398515299445 pbc="F F F"
He       0.00000000       0.00000000       0.00000000       0.00000000       0.00000000      -0.17506602
He       0.00000000       0.00000000       2.06121212       0.00000000       0.00000000       0.17506602
2
Properties=species:S:1:pos:R:3:forces:R:3 energy=0.014831243077421627 pbc="F F F"
He       0.00000000       0.00000000       0.00000000       0.00000000       0.00000000      -0.13266185
He       0.00000000       0.00000000       2.12000000       0.00000000       0.00000000       0.13266185
2
Properties=species:S:1:pos:R:3:forces:R:3 energy=0.008040846495326128 pbc="F F F"
He       0.00000000       0.00000000       0.00000000       0.00000000       0.00000000      -0.09975545
He       0.00000000       0.00000000       2.17878788       0.00000000       0.00000000       0.09975545
2
Properties=species:S:1:pos:R:3:forces:R:3 energy=0.0029567100445840573 pbc="F F F"
He       0.00000000       0.00000000       0.00000000       0.00000000       0.00000000      -0.07429203
He       0.00000000       0.00000000       2.23757576       0.00000000       0.00000000       0.07429203
2
Properties=species:S:1:pos:R:3:forces:R:3 energy=-0.0008075134882654757 pbc="F F F"
He       0.00000000       0.00000000       0.00000000       0.00000000       0.00000000      -0.05462766
He       0.00000000       0.00000000       2.29636364       0.00000000       0.00000000       0.05462766
2
Properties=species:S:1:pos:R:3:forces:R:3 energy=-0.0035539097684490475 pbc="F F F"
He       0.00000000       0.00000000       0.00000000       0.00000000       0.00000000      -0.03945629
He       0.00000000       0.00000000       2.35515152       0.00000000       0.00000000       0.03945629
2
Properties=species:S:1:pos:R:3:forces:R:3 energy=-0.0055146515219603115 pbc="F F F"
He       0.00000000       0.00000000       0.00000000       0.00000000       0.00000000      -0.02775385
He       0.00000000       0.00000000       2.41393939       0.00000000       0.00000000       0.02775385
2
Properties=species:S:1:pos:R:3:forces:R:3 energy=-0.006869300584683639 pbc="F F F"
He       0.00000000       0.00000000       0.00000000       0.00000000       0.00000000      -0.01872539
He       0.00000000       0.00000000       2.47272727       0.00000000       0.00000000       0.01872539
2
Properties=species:S:1:pos:R:3:forces:R:3 energy=-0.00775664744473501 pbc="F F F"
He       0.00000000       0.00000000       0.00000000       0.00000000       0.00000000      -0.01176544
He       0.00000000       0.00000000       2.53151515       0.00000000       0.00000000       0.01176544
2
Properties=species:S:1:pos:R:3:forces:R:3 energy=-0.008284422409377374 pbc="F F F"
He       0.00000000       0.00000000       0.00000000       0.00000000       0.00000000      -0.00642114
He       0.00000000       0.00000000       2.59030303       0.00000000       0.00000000       0.00642114
2
Properties=species:S:1:pos:R:3:forces:R:3 energy=-0.00853688098018509 pbc="F F F"
He       0.00000000       0.00000000       0.00000000       0.00000000       0.00000000      -0.00236011
He       0.00000000       0.00000000       2.64909091       0.00000000       0.00000000       0.00236011
2
Properties=species:S:1:pos:R:3:forces:R:3 energy=-0.008582082583063106 pbc="F F F"
He       0.00000000       0.00000000       0.00000000       0.00000000       0.00000000       0.00065800
He       0.00000000       0.00000000       2.70787879       0.00000000       0.00000000      -0.00065800
2
Properties=species:S:1:pos:R:3:forces:R:3 energy=-0.008476289733484688 pbc="F F F"
He       0.00000000       0.00000000       0.00000000       0.00000000       0.00000000       0.00281148
He       0.00000000       0.00000000       2.76666667       0.00000000       0.00000000      -0.00281148
2
Properties=species:S:1:pos:R:3:forces:R:3 energy=-0.0082658506763257 pbc="F F F"
He       0.00000000       0.00000000       0.00000000       0.00000000       0.00000000       0.00423749
He       0.00000000       0.00000000       2.82545455       0.00000000       0.00000000      -0.00423749
2
Properties=species:S:1:pos:R:3:forces:R:3 energy=-0.007990114004669162 pbc="F F F"
He       0.00000000       0.00000000       0.00000000       0.00000000       0.00000000       0.00505387
He       0.00000000       0.00000000       2.88424242       0.00000000       0.00000000      -0.00505387
2
Properties=species:S:1:pos:R:3:forces:R:3 energy=-0.007681456424177546 pbc="F F F"
He       0.00000000       0.00000000       0.00000000       0.00000000       0.00000000       0.00537231
He       0.00000000       0.00000000       2.94303030       0.00000000       0.00000000      -0.00537231
2
Properties=species:S:1:pos:R:3:forces:R:3 energy=-0.007365833830882205 pbc="F F F"
He       0.00000000       0.00000000       0.00000000       0.00000000       0.00000000       0.00530841
He       0.00000000       0.00000000       3.00181818       0.00000000       0.00000000      -0.00530841
2
Properties=species:S:1:pos:R:3:forces:R:3 energy=-0.007062420840410384 pbc="F F F"
He       0.00000000       0.00000000       0.00000000       0.00000000       0.00000000       0.00498225
He       0.00000000       0.00000000       3.06060606       0.00000000       0.00000000      -0.00498225
2
Properties=species:S:1:pos:R:3:forces:R:3 energy=-0.006782871710525259 pbc="F F F"
He       0.00000000       0.00000000       0.00000000       0.00000000       0.00000000       0.00451256
He       0.00000000       0.00000000       3.11939394       0.00000000       0.00000000      -0.00451256
2
Properties=species:S:1:pos:R:3:forces:R:3 energy=-0.0065325394169392734 pbc="F F F"
He       0.00000000       0.00000000       0.00000000       0.00000000       0.00000000       0.00400941
He       0.00000000       0.00000000       3.17818182       0.00000000       0.00000000      -0.00400941
2
Properties=species:S:1:pos:R:3:forces:R:3 energy=-0.006310314882926331 pbc="F F F"
He       0.00000000       0.00000000       0.00000000       0.00000000       0.00000000       0.00356358
He       0.00000000       0.00000000       3.23696970       0.00000000       0.00000000      -0.00356358
2
Properties=species:S:1:pos:R:3:forces:R:3 energy=-0.006111099708503867 pbc="F F F"
He       0.00000000       0.00000000       0.00000000       0.00000000       0.00000000       0.00324056
He       0.00000000       0.00000000       3.29575758       0.00000000       0.00000000      -0.00324056
2
Properties=species:S:1:pos:R:3:forces:R:3 energy=-0.005926283291575657 pbc="F F F"
He       0.00000000       0.00000000       0.00000000       0.00000000       0.00000000       0.00307562
He       0.00000000       0.00000000       3.35454545       0.00000000       0.00000000      -0.00307562
2
Properties=species:S:1:pos:R:3:forces:R:3 energy=-0.005746149966618863 pbc="F F F"
He       0.00000000       0.00000000       0.00000000       0.00000000       0.00000000       0.00307679
He       0.00000000       0.00000000       3.41333333       0.00000000       0.00000000      -0.00307679
2
Properties=species:S:1:pos:R:3:forces:R:3 energy=-0.005561492582979879 pbc="F F F"
He       0.00000000       0.00000000       0.00000000       0.00000000       0.00000000       0.00322907
He       0.00000000       0.00000000       3.47212121       0.00000000       0.00000000      -0.00322907
2
Properties=species:S:1:pos:R:3:forces:R:3 energy=-0.005364223349614749 pbc="F F F"
He       0.00000000       0.00000000       0.00000000       0.00000000       0.00000000       0.00349914
He       0.00000000       0.00000000       3.53090909       0.00000000       0.00000000      -0.00349914
2
Properties=species:S:1:pos:R:3:forces:R:3 energy=-0.005148688465337922 pbc="F F F"
He       0.00000000       0.00000000       0.00000000       0.00000000       0.00000000       0.00383940
He       0.00000000       0.00000000       3.58969697       0.00000000       0.00000000      -0.00383940
2
Properties=species:S:1:pos:R:3:forces:R:3 energy=-0.004912550957314634 pbc="F F F"
He       0.00000000       0.00000000       0.00000000       0.00000000       0.00000000       0.00419081
He       0.00000000       0.00000000       3.64848485       0.00000000       0.00000000      -0.00419081
2
Properties=species:S:1:pos:R:3:forces:R:3 energy=-0.004657122302269204 pbc="F F F"
He       0.00000000       0.00000000       0.00000000       0.00000000       0.00000000       0.00448366
He       0.00000000       0.00000000       3.70727273       0.00000000       0.00000000      -0.00448366
2
Properties=species:S:1:pos:R:3:forces:R:3 energy=-0.0043879740384323756 pbc="F F F"
He       0.00000000       0.00000000       0.00000000       0.00000000       0.00000000       0.00464406
He       0.00000000       0.00000000       3.76606061       0.00000000       0.00000000      -0.00464406
2
Properties=species:S:1:pos:R:3:forces:R:3 energy=-0.004115008607304098 pbc="F F F"
He       0.00000000       0.00000000       0.00000000       0.00000000       0.00000000       0.00460507
He       0.00000000       0.00000000       3.82484848       0.00000000       0.00000000      -0.00460507
2
Properties=species:S:1:pos:R:3:forces:R:3 energy=-0.0038512682341099364 pbc="F F F"
He       0.00000000       0.00000000       0.00000000       0.00000000       0.00000000       0.00432437
He       0.00000000       0.00000000       3.88363636       0.00000000       0.00000000      -0.00432437
2
Properties=species:S:1:pos:R:3:forces:R:3 energy=-0.003611274292405974 pbc="F F F"
He       0.00000000       0.00000000       0.00000000       0.00000000       0.00000000       0.00380532
He       0.00000000       0.00000000       3.94242424       0.00000000       0.00000000      -0.00380532
2
Properties=species:S:1:pos:R:3:forces:R:3 energy=-0.0034074041017213446 pbc="F F F"
He       0.00000000       0.00000000       0.00000000       0.00000000       0.00000000       0.00310918
He       0.00000000       0.00000000       4.00121212       0.00000000       0.00000000      -0.00310918
2
Properties=species:S:1:pos:R:3:forces:R:3 energy=-0.003246958040060901 pbc="F F F"
He       0.00000000       0.00000000       0.00000000       0.00000000       0.00000000       0.00234968
He       0.00000000       0.00000000       4.06000000       0.00000000       0.00000000      -0.00234968
2
Properties=species:S:1:pos:R:3:forces:R:3 energy=-0.0031296834756615686 pbc="F F F"
He       0.00000000       0.00000000       0.00000000       0.00000000       0.00000000       0.00166332
He       0.00000000       0.00000000       4.11878788       0.00000000       0.00000000      -0.00166332
2
Properties=species:S:1:pos:R:3:forces:R:3 energy=-0.0030476781862416136 pbc="F F F"
He       0.00000000       0.00000000       0.00000000       0.00000000       0.00000000       0.00116627
He       0.00000000       0.00000000       4.17757576       0.00000000       0.00000000      -0.00116627
2
Properties=species:S:1:pos:R:3:forces:R:3 energy=-0.002987567523507692 pbc="F F F"
He       0.00000000       0.00000000       0.00000000       0.00000000       0.00000000       0.00092245
He       0.00000000       0.00000000       4.23636364       0.00000000       0.00000000      -0.00092245
2
Properties=species:S:1:pos:R:3:forces:R:3 energy=-0.002934119101085584 pbc="F F F"
He       0.00000000       0.00000000       0.00000000       0.00000000       0.00000000       0.00093806
He       0.00000000       0.00000000       4.29515152       0.00000000       0.00000000      -0.00093806
2
Properties=species:S:1:pos:R:3:forces:R:3 energy=-0.0028728511783159046 pbc="F F F"
He       0.00000000       0.00000000       0.00000000       0.00000000       0.00000000       0.00117914
He       0.00000000       0.00000000       4.35393939       0.00000000       0.00000000      -0.00117914
2
Properties=species:S:1:pos:R:3:forces:R:3 energy=-0.002792106642350467 pbc="F F F"
He       0.00000000       0.00000000       0.00000000       0.00000000       0.00000000       0.00159021
He       0.00000000       0.00000000       4.41272727       0.00000000       0.00000000      -0.00159021
2
Properties=species:S:1:pos:R:3:forces:R:3 energy=-0.0026839176242632267 pbc="F F F"
He       0.00000000       0.00000000       0.00000000       0.00000000       0.00000000       0.00210069
He       0.00000000       0.00000000       4.47151515       0.00000000       0.00000000      -0.00210069
2
Properties=species:S:1:pos:R:3:forces:R:3 energy=-0.0025448067435409278 pbc="F F F"
He       0.00000000       0.00000000       0.00000000       0.00000000       0.00000000       0.00262676
He       0.00000000       0.00000000       4.53030303       0.00000000       0.00000000      -0.00262676
2
Properties=species:S:1:pos:R:3:forces:R:3 energy=-0.0023765544963856556 pbc="F F F"
He       0.00000000       0.00000000       0.00000000       0.00000000       0.00000000       0.00307685
He       0.00000000       0.00000000       4.58909091       0.00000000       0.00000000      -0.00307685
2
Properties=species:S:1:pos:R:3:forces:R:3 energy=-0.002186114157255158 pbc="F F F"
He       0.00000000       0.00000000       0.00000000       0.00000000       0.00000000       0.00337155
He       0.00000000       0.00000000       4.64787879       0.00000000       0.00000000      -0.00337155
2
Properties=species:S:1:pos:R:3:forces:R:3 energy=-0.001984109798473784 pbc="F F F"
He       0.00000000       0.00000000       0.00000000       0.00000000       0.00000000       0.00346631
He       0.00000000       0.00000000       4.70666667       0.00000000       0.00000000      -0.00346631
2
Properties=species:S:1:pos:R:3:forces:R:3 energy=-0.0017823849147235774 pbc="F F F"
He       0.00000000       0.00000000       0.00000000       0.00000000       0.00000000       0.00336606
He       0.00000000       0.00000000       4.76545455       0.00000000       0.00000000      -0.00336606
2
Properties=species:S:1:pos:R:3:forces:R:3 energy=-0.0015913152874629526 pbc="F F F"
He       0.00000000       0.00000000       0.00000000       0.00000000       0.00000000       0.00311515
He       0.00000000       0.00000000       4.82424242       0.00000000       0.00000000      -0.00311515
2
Properties=species:S:1:pos:R:3:forces:R:3 energy=-0.001417966261937218 pbc="F F F"
He       0.00000000       0.00000000       0.00000000       0.00000000       0.00000000       0.00277157
He       0.00000000       0.00000000       4.88303030       0.00000000       0.00000000      -0.00277157
2
Properties=species:S:1:pos:R:3:forces:R:3 energy=-0.0012664625693450976 pbc="F F F"
He       0.00000000       0.00000000       0.00000000       0.00000000       0.00000000       0.00237454
He       0.00000000       0.00000000       4.94181818       0.00000000       0.00000000      -0.00237454
2
Properties=species:S:1:pos:R:3:forces:R:3 energy=-0.0011396262037966993 pbc="F F F"
He       0.00000000       0.00000000       0.00000000       0.00000000       0.00000000       0.00193150
He       0.00000000       0.00000000       5.00060606       0.00000000       0.00000000      -0.00193150
2
Properties=species:S:1:pos:R:3:forces:R:3 energy=-0.0010404175326289844 pbc="F F F"
He       0.00000000       0.00000000       0.00000000       0.00000000       0.00000000       0.00143543
He       0.00000000       0.00000000       5.05939394       0.00000000       0.00000000      -0.00143543
2
Properties=species:S:1:pos:R:3:forces:R:3 energy=-0.0009714899562635335 pbc="F F F"
He       0.00000000       0.00000000       0.00000000       0.00000000       0.00000000       0.00090930
He       0.00000000       0.00000000       5.11818182       0.00000000       0.00000000      -0.00090930
2
Properties=species:S:1:pos:R:3:forces:R:3 energy=-0.0009321573045408361 pbc="F F F"
He       0.00000000       0.00000000       0.00000000       0.00000000       0.00000000       0.00045572
He       0.00000000       0.00000000       5.17696970       0.00000000       0.00000000      -0.00045572
2
Properties=species:S:1:pos:R:3:forces:R:3 energy=-0.0009125557528303092 pbc="F F F"
He       0.00000000       0.00000000       0.00000000       0.00000000       0.00000000       0.00027919
He       0.00000000       0.00000000       5.23575758       0.00000000       0.00000000      -0.00027919
2
Properties=species:S:1:pos:R:3:forces:R:3 energy=-0.0008888789684689518 pbc="F F F"
He       0.00000000       0.00000000       0.00000000       0.00000000       0.00000000       0.00063146
He       0.00000000       0.00000000       5.29454545       0.00000000       0.00000000      -0.00063146
2
Properties=species:S:1:pos:R:3:forces:R:3 energy=-0.0008262948651436661 pbc="F F F"
He       0.00000000       0.00000000       0.00000000       0.00000000       0.00000000       0.00157286
He       0.00000000       0.00000000       5.35333333       0.00000000       0.00000000      -0.00157286
2
Properties=species:S:1:pos:R:3:forces:R:3 energy=-0.0007034144461247178 pbc="F F F"
He       0.00000000       0.00000000       0.00000000       0.00000000       0.00000000       0.00251346
He       0.00000000       0.00000000       5.41212121       0.00000000       0.00000000      -0.00251346
2
Properties=species:S:1:pos:R:3:forces:R:3 energy=-0.0005527029601712319 pbc="F F F"
He       0.00000000       0.00000000       0.00000000       0.00000000       0.00000000       0.00238795
He       0.00000000       0.00000000       5.47090909       0.00000000       0.00000000      -0.00238795
2
Properties=species:S:1:pos:R:3:forces:R:3 energy=-0.0004400697873107799 pbc="F F F"
He       0.00000000       0.00000000       0.00000000       0.00000000       0.00000000       0.00142074
He       0.00000000       0.00000000       5.52969697       0.00000000       0.00000000      -0.00142074
2
Properties=species:S:1:pos:R:3:forces:R:3 energy=-0.00037840881544606847 pbc="F F F"
He       0.00000000       0.00000000       0.00000000       0.00000000       0.00000000       0.00075199
He       0.00000000       0.00000000       5.58848485       0.00000000       0.00000000      -0.00075199
2
Properties=species:S:1:pos:R:3:forces:R:3 energy=-0.0003504947823019463 pbc="F F F"
He       0.00000000       0.00000000       0.00000000       0.00000000       0.00000000       0.00012552
He       0.00000000       0.00000000       5.64727273       0.00000000       0.00000000      -0.00012552
2
Properties=species:S:1:pos:R:3:forces:R:3 energy=-0.0003796270157094701 pbc="F F F"
He       0.00000000       0.00000000       0.00000000       0.00000000       0.00000000      -0.00127232
He       0.00000000       0.00000000       5.70606061       0.00000000       0.00000000       0.00127232
2
Properties=species:S:1:pos:R:3:forces:R:3 energy=-0.0005078575014190684 pbc="F F F"
He       0.00000000       0.00000000       0.00000000       0.00000000       0.00000000      -0.00298133
He       0.00000000       0.00000000       5.76484848       0.00000000       0.00000000       0.00298133
2
Properties=species:S:1:pos:R:3:forces:R:3 energy=-0.0006993479928196755 pbc="F F F"
He       0.00000000       0.00000000       0.00000000       0.00000000       0.00000000      -0.00320979
He       0.00000000       0.00000000       5.82363636       0.00000000       0.00000000       0.00320979
2
Properties=species:S:1:pos:R:3:forces:R:3 energy=-0.0008535712655881651 pbc="F F F"
He       0.00000000       0.00000000       0.00000000       0.00000000       0.00000000      -0.00191187
He       0.00000000       0.00000000       5.88242424       0.00000000       0.00000000       0.00191187
2
Properties=species:S:1:pos:R:3:forces:R:3 energy=-0.0009229891986292185 pbc="F F F"
He       0.00000000       0.00000000       0.00000000       0.00000000       0.00000000      -0.00052490
He       0.00000000       0.00000000       5.94121212       0.00000000       0.00000000       0.00052490
2
Properties=species:S:1:pos:R:3:forces:R:3 energy=-0.000932467079038614 pbc="F F F"
He       0.00000000       0.00000000       0.00000000       0.00000000       0.00000000       0.00002058
He       0.00000000       0.00000000       6.00000000       0.00000000       0.00000000      -0.00002058
