2
Properties=species:S:1:pos:R:3:forces:R:3 energy=14292.818220548064 pbc="F F F"
Hf       0.00000000       0.00000000       0.00000000       0.00000000       0.00000000 -249242.70312500
Hf       0.00000000       0.00000000       0.18000000       0.00000000       0.00000000  249242.70312500
2
Properties=species:S:1:pos:R:3:forces:R:3 energy=5576.276228360563 pbc="F F F"
Hf       0.00000000       0.00000000       0.00000000       0.00000000       0.00000000  -82566.84375000
Hf       0.00000000       0.00000000       0.23878788       0.00000000       0.00000000   82566.84375000
2
Properties=species:S:1:pos:R:3:forces:R:3 energy=2464.432966641814 pbc="F F F"
Hf       0.00000000       0.00000000       0.00000000       0.00000000       0.00000000  -32183.08203125
Hf       0.00000000       0.00000000       0.29757576       0.00000000       0.00000000   32183.08203125
2
Properties=species:S:1:pos:R:3:forces:R:3 energy=1193.746809418419 pbc="F F F"
Hf       0.00000000       0.00000000       0.00000000       0.00000000       0.00000000  -13879.93359375
Hf       0.00000000       0.00000000       0.35636364       0.00000000       0.00000000   13879.93359375
2
Properties=species:S:1:pos:R:3:forces:R:3 energy=627.2820877418993 pbc="F F F"
Hf       0.00000000       0.00000000       0.00000000       0.00000000       0.00000000   -6438.04394531
Hf       0.00000000       0.00000000       0.41515152       0.00000000       0.00000000    6438.04394531
2
Properties=species:S:1:pos:R:3:forces:R:3 energy=357.3818802223681 pbc="F F F"
Hf       0.00000000       0.00000000       0.00000000       0.00000000       0.00000000   -3169.17553711
Hf       0.00000000       0.00000000       0.47393939       0.00000000       0.00000000    3169.17553711
2
Properties=species:S:1:pos:R:3:forces:R:3 energy=221.32826084710595 pbc="F F F"
Hf       0.00000000       0.00000000       0.00000000       0.00000000       0.00000000   -1644.33508301
Hf       0.00000000       0.00000000       0.53272727       0.00000000       0.00000000    1644.33508301
2
Properties=species:S:1:pos:R:3:forces:R:3 energy=149.15600439005067 pbc="F F F"
Hf       0.00000000       0.00000000       0.00000000       0.00000000       0.00000000    -896.09979248
Hf       0.00000000       0.00000000       0.59151515       0.00000000       0.00000000     896.09979248
2
Properties=species:S:1:pos:R:3:forces:R:3 energy=108.94535682921762 pbc="F F F"
Hf       0.00000000       0.00000000       0.00000000       0.00000000       0.00000000    -513.17749023
Hf       0.00000000       0.00000000       0.65030303       0.00000000       0.00000000     513.17749023
2
Properties=species:S:1:pos:R:3:forces:R:3 energy=85.32157757035648 pbc="F F F"
Hf       0.00000000       0.00000000       0.00000000       0.00000000       0.00000000    -311.73931885
Hf       0.00000000       0.00000000       0.70909091       0.00000000       0.00000000     311.73931885
2
Properties=species:S:1:pos:R:3:forces:R:3 energy=70.44022233856494 pbc="F F F"
Hf       0.00000000       0.00000000       0.00000000       0.00000000       0.00000000    -206.14353943
Hf       0.00000000       0.00000000       0.76787879       0.00000000       0.00000000     206.14353943
2
Properties=species:S:1:pos:R:3:forces:R:3 energy=60.054197936327185 pbc="F F F"
Hf       0.00000000       0.00000000       0.00000000       0.00000000       0.00000000    -153.65063477
Hf       0.00000000       0.00000000       0.82666667       0.00000000       0.00000000     153.65063477
2
Properties=species:S:1:pos:R:3:forces:R:3 energy=51.815130972732064 pbc="F F F"
Hf       0.00000000       0.00000000       0.00000000       0.00000000       0.00000000    -130.03836060
Hf       0.00000000       0.00000000       0.88545455       0.00000000       0.00000000     130.03836060
2
Properties=species:S:1:pos:R:3:forces:R:3 energy=44.484591424586206 pbc="F F F"
Hf       0.00000000       0.00000000       0.00000000       0.00000000       0.00000000    -120.86809540
Hf       0.00000000       0.00000000       0.94424242       0.00000000       0.00000000     120.86809540
2
Properties=species:S:1:pos:R:3:forces:R:3 energy=37.51002804453312 pbc="F F F"
Hf       0.00000000       0.00000000       0.00000000       0.00000000       0.00000000    -116.60310364
Hf       0.00000000       0.00000000       1.00303030       0.00000000       0.00000000     116.60310364
2
Properties=species:S:1:pos:R:3:forces:R:3 energy=30.791175332810944 pbc="F F F"
Hf       0.00000000       0.00000000       0.00000000       0.00000000       0.00000000    -111.75184631
Hf       0.00000000       0.00000000       1.06181818       0.00000000       0.00000000     111.75184631
2
Properties=species:S:1:pos:R:3:forces:R:3 energy=24.362907286668058 pbc="F F F"
Hf       0.00000000       0.00000000       0.00000000       0.00000000       0.00000000    -107.35800934
Hf       0.00000000       0.00000000       1.12060606       0.00000000       0.00000000     107.35800934
2
Properties=species:S:1:pos:R:3:forces:R:3 energy=18.14263572931062 pbc="F F F"
Hf       0.00000000       0.00000000       0.00000000       0.00000000       0.00000000    -103.85470581
Hf       0.00000000       0.00000000       1.17939394       0.00000000       0.00000000     103.85470581
2
Properties=species:S:1:pos:R:3:forces:R:3 energy=12.281842314499169 pbc="F F F"
Hf       0.00000000       0.00000000       0.00000000       0.00000000       0.00000000     -94.01443481
Hf       0.00000000       0.00000000       1.23818182       0.00000000       0.00000000      94.01443481
2
Properties=species:S:1:pos:R:3:forces:R:3 energy=7.244723759056072 pbc="F F F"
Hf       0.00000000       0.00000000       0.00000000       0.00000000       0.00000000     -76.56867981
Hf       0.00000000       0.00000000       1.29696970       0.00000000       0.00000000      76.56867981
2
Properties=species:S:1:pos:R:3:forces:R:3 energy=3.291841090375075 pbc="F F F"
Hf       0.00000000       0.00000000       0.00000000       0.00000000       0.00000000     -58.28888321
Hf       0.00000000       0.00000000       1.35575758       0.00000000       0.00000000      58.28888321
2
Properties=species:S:1:pos:R:3:forces:R:3 energy=0.3328270419416279 pbc="F F F"
Hf       0.00000000       0.00000000       0.00000000       0.00000000       0.00000000     -42.85343933
Hf       0.00000000       0.00000000       1.41454545       0.00000000       0.00000000      42.85343933
2
Properties=species:S:1:pos:R:3:forces:R:3 energy=-1.7959602620177595 pbc="F F F"
Hf       0.00000000       0.00000000       0.00000000       0.00000000       0.00000000     -29.98871613
Hf       0.00000000       0.00000000       1.47333333       0.00000000       0.00000000      29.98871613
2
Properties=species:S:1:pos:R:3:forces:R:3 energy=-3.253756963521179 pbc="F F F"
Hf       0.00000000       0.00000000       0.00000000       0.00000000       0.00000000     -20.22776413
Hf       0.00000000       0.00000000       1.53212121       0.00000000       0.00000000      20.22776413
2
Properties=species:S:1:pos:R:3:forces:R:3 energy=-4.248787041524323 pbc="F F F"
Hf       0.00000000       0.00000000       0.00000000       0.00000000       0.00000000     -14.19475269
Hf       0.00000000       0.00000000       1.59090909       0.00000000       0.00000000      14.19475269
2
Properties=species:S:1:pos:R:3:forces:R:3 energy=-4.977784129981661 pbc="F F F"
Hf       0.00000000       0.00000000       0.00000000       0.00000000       0.00000000     -10.98466969
Hf       0.00000000       0.00000000       1.64969697       0.00000000       0.00000000      10.98466969
2
Properties=species:S:1:pos:R:3:forces:R:3 energy=-5.576790496685262 pbc="F F F"
Hf       0.00000000       0.00000000       0.00000000       0.00000000       0.00000000      -9.64124584
Hf       0.00000000       0.00000000       1.70848485       0.00000000       0.00000000       9.64124584
2
Properties=species:S:1:pos:R:3:forces:R:3 energy=-6.133843051104565 pbc="F F F"
Hf       0.00000000       0.00000000       0.00000000       0.00000000       0.00000000      -9.45279121
Hf       0.00000000       0.00000000       1.76727273       0.00000000       0.00000000       9.45279121
2
Properties=species:S:1:pos:R:3:forces:R:3 energy=-6.700041949095919 pbc="F F F"
Hf       0.00000000       0.00000000       0.00000000       0.00000000       0.00000000      -9.86542892
Hf       0.00000000       0.00000000       1.82606061       0.00000000       0.00000000       9.86542892
2
Properties=species:S:1:pos:R:3:forces:R:3 energy=-7.294153928142729 pbc="F F F"
Hf       0.00000000       0.00000000       0.00000000       0.00000000       0.00000000     -10.29589081
Hf       0.00000000       0.00000000       1.88484848       0.00000000       0.00000000      10.29589081
2
Properties=species:S:1:pos:R:3:forces:R:3 energy=-7.8994547613859165 pbc="F F F"
Hf       0.00000000       0.00000000       0.00000000       0.00000000       0.00000000     -10.17154598
Hf       0.00000000       0.00000000       1.94363636       0.00000000       0.00000000      10.17154598
2
Properties=species:S:1:pos:R:3:forces:R:3 energy=-8.474607785705127 pbc="F F F"
Hf       0.00000000       0.00000000       0.00000000       0.00000000       0.00000000      -9.27292728
Hf       0.00000000       0.00000000       2.00242424       0.00000000       0.00000000       9.27292728
2
Properties=species:S:1:pos:R:3:forces:R:3 energy=-8.9784222628217 pbc="F F F"
Hf       0.00000000       0.00000000       0.00000000       0.00000000       0.00000000      -7.80401039
Hf       0.00000000       0.00000000       2.06121212       0.00000000       0.00000000       7.80401039
2
Properties=species:S:1:pos:R:3:forces:R:3 energy=-9.38878962522426 pbc="F F F"
Hf       0.00000000       0.00000000       0.00000000       0.00000000       0.00000000      -6.15889454
Hf       0.00000000       0.00000000       2.12000000       0.00000000       0.00000000       6.15889454
2
Properties=species:S:1:pos:R:3:forces:R:3 energy=-9.705278755100993 pbc="F F F"
Hf       0.00000000       0.00000000       0.00000000       0.00000000       0.00000000      -4.64545870
Hf       0.00000000       0.00000000       2.17878788       0.00000000       0.00000000       4.64545870
2
Properties=species:S:1:pos:R:3:forces:R:3 energy=-9.939939739256573 pbc="F F F"
Hf       0.00000000       0.00000000       0.00000000       0.00000000       0.00000000      -3.38030457
Hf       0.00000000       0.00000000       2.23757576       0.00000000       0.00000000       3.38030457
2
Properties=species:S:1:pos:R:3:forces:R:3 energy=-10.107265056098205 pbc="F F F"
Hf       0.00000000       0.00000000       0.00000000       0.00000000       0.00000000      -2.34578395
Hf       0.00000000       0.00000000       2.29636364       0.00000000       0.00000000       2.34578395
2
Properties=species:S:1:pos:R:3:forces:R:3 energy=-10.219058557395577 pbc="F F F"
Hf       0.00000000       0.00000000       0.00000000       0.00000000       0.00000000      -1.48074663
Hf       0.00000000       0.00000000       2.35515152       0.00000000       0.00000000       1.48074663
2
Properties=species:S:1:pos:R:3:forces:R:3 energy=-10.283628834039382 pbc="F F F"
Hf       0.00000000       0.00000000       0.00000000       0.00000000       0.00000000      -0.73203248
Hf       0.00000000       0.00000000       2.41393939       0.00000000       0.00000000       0.73203248
2
Properties=species:S:1:pos:R:3:forces:R:3 energy=-10.306765154320509 pbc="F F F"
Hf       0.00000000       0.00000000       0.00000000       0.00000000       0.00000000      -0.06742508
Hf       0.00000000       0.00000000       2.47272727       0.00000000       0.00000000       0.06742508
2
Properties=species:S:1:pos:R:3:forces:R:3 energy=-10.292909418631288 pbc="F F F"
Hf       0.00000000       0.00000000       0.00000000       0.00000000       0.00000000       0.52778918
Hf       0.00000000       0.00000000       2.53151515       0.00000000       0.00000000      -0.52778918
2
Properties=species:S:1:pos:R:3:forces:R:3 energy=-10.246002787679766 pbc="F F F"
Hf       0.00000000       0.00000000       0.00000000       0.00000000       0.00000000       1.05673349
Hf       0.00000000       0.00000000       2.59030303       0.00000000       0.00000000      -1.05673349
2
Properties=species:S:1:pos:R:3:forces:R:3 energy=-10.170040362658247 pbc="F F F"
Hf       0.00000000       0.00000000       0.00000000       0.00000000       0.00000000       1.51517844
Hf       0.00000000       0.00000000       2.64909091       0.00000000       0.00000000      -1.51517844
2
Properties=species:S:1:pos:R:3:forces:R:3 energy=-10.06941297745956 pbc="F F F"
Hf       0.00000000       0.00000000       0.00000000       0.00000000       0.00000000       1.89404714
Hf       0.00000000       0.00000000       2.70787879       0.00000000       0.00000000      -1.89404714
2
Properties=species:S:1:pos:R:3:forces:R:3 energy=-9.949119528613094 pbc="F F F"
Hf       0.00000000       0.00000000       0.00000000       0.00000000       0.00000000       2.18252921
Hf       0.00000000       0.00000000       2.76666667       0.00000000       0.00000000      -2.18252921
2
Properties=species:S:1:pos:R:3:forces:R:3 energy=-9.814703328884002 pbc="F F F"
Hf       0.00000000       0.00000000       0.00000000       0.00000000       0.00000000       2.37429070
Hf       0.00000000       0.00000000       2.82545455       0.00000000       0.00000000      -2.37429070
2
Properties=species:S:1:pos:R:3:forces:R:3 energy=-9.671771290051572 pbc="F F F"
Hf       0.00000000       0.00000000       0.00000000       0.00000000       0.00000000       2.47413301
Hf       0.00000000       0.00000000       2.88424242       0.00000000       0.00000000      -2.47413301
2
Properties=species:S:1:pos:R:3:forces:R:3 energy=-9.525283868895754 pbc="F F F"
Hf       0.00000000       0.00000000       0.00000000       0.00000000       0.00000000       2.49869084
Hf       0.00000000       0.00000000       2.94303030       0.00000000       0.00000000      -2.49869084
2
Properties=species:S:1:pos:R:3:forces:R:3 energy=-9.379035330054261 pbc="F F F"
Hf       0.00000000       0.00000000       0.00000000       0.00000000       0.00000000       2.46951032
Hf       0.00000000       0.00000000       3.00181818       0.00000000       0.00000000      -2.46951032
2
Properties=species:S:1:pos:R:3:forces:R:3 energy=-9.235628419255342 pbc="F F F"
Hf       0.00000000       0.00000000       0.00000000       0.00000000       0.00000000       2.40437007
Hf       0.00000000       0.00000000       3.06060606       0.00000000       0.00000000      -2.40437007
2
Properties=species:S:1:pos:R:3:forces:R:3 energy=-9.096833342626025 pbc="F F F"
Hf       0.00000000       0.00000000       0.00000000       0.00000000       0.00000000       2.31390786
Hf       0.00000000       0.00000000       3.11939394       0.00000000       0.00000000      -2.31390786
2
Properties=species:S:1:pos:R:3:forces:R:3 energy=-8.963926156304552 pbc="F F F"
Hf       0.00000000       0.00000000       0.00000000       0.00000000       0.00000000       2.20531988
Hf       0.00000000       0.00000000       3.17818182       0.00000000       0.00000000      -2.20531988
2
Properties=species:S:1:pos:R:3:forces:R:3 energy=-8.837706826718366 pbc="F F F"
Hf       0.00000000       0.00000000       0.00000000       0.00000000       0.00000000       2.08839345
Hf       0.00000000       0.00000000       3.23696970       0.00000000       0.00000000      -2.08839345
2
Properties=species:S:1:pos:R:3:forces:R:3 energy=-8.71828576806474 pbc="F F F"
Hf       0.00000000       0.00000000       0.00000000       0.00000000       0.00000000       1.97624445
Hf       0.00000000       0.00000000       3.29575758       0.00000000       0.00000000      -1.97624445
2
Properties=species:S:1:pos:R:3:forces:R:3 energy=-8.605049845692644 pbc="F F F"
Hf       0.00000000       0.00000000       0.00000000       0.00000000       0.00000000       1.87908840
Hf       0.00000000       0.00000000       3.35454545       0.00000000       0.00000000      -1.87908840
2
Properties=species:S:1:pos:R:3:forces:R:3 energy=-8.497000471105236 pbc="F F F"
Hf       0.00000000       0.00000000       0.00000000       0.00000000       0.00000000       1.79959583
Hf       0.00000000       0.00000000       3.41333333       0.00000000       0.00000000      -1.79959583
2
Properties=species:S:1:pos:R:3:forces:R:3 energy=-8.39318015383499 pbc="F F F"
Hf       0.00000000       0.00000000       0.00000000       0.00000000       0.00000000       1.73425746
Hf       0.00000000       0.00000000       3.47212121       0.00000000       0.00000000      -1.73425746
2
Properties=species:S:1:pos:R:3:forces:R:3 energy=-8.292972529515193 pbc="F F F"
Hf       0.00000000       0.00000000       0.00000000       0.00000000       0.00000000       1.67508686
Hf       0.00000000       0.00000000       3.53090909       0.00000000       0.00000000      -1.67508686
2
Properties=species:S:1:pos:R:3:forces:R:3 energy=-8.196320187267428 pbc="F F F"
Hf       0.00000000       0.00000000       0.00000000       0.00000000       0.00000000       1.61141074
Hf       0.00000000       0.00000000       3.58969697       0.00000000       0.00000000      -1.61141074
2
Properties=species:S:1:pos:R:3:forces:R:3 energy=-8.103771180291778 pbc="F F F"
Hf       0.00000000       0.00000000       0.00000000       0.00000000       0.00000000       1.53460288
Hf       0.00000000       0.00000000       3.64848485       0.00000000       0.00000000      -1.53460288
2
Properties=species:S:1:pos:R:3:forces:R:3 energy=-8.016189547254548 pbc="F F F"
Hf       0.00000000       0.00000000       0.00000000       0.00000000       0.00000000       1.44272041
Hf       0.00000000       0.00000000       3.70727273       0.00000000       0.00000000      -1.44272041
2
Properties=species:S:1:pos:R:3:forces:R:3 energy=-7.934340031734326 pbc="F F F"
Hf       0.00000000       0.00000000       0.00000000       0.00000000       0.00000000       1.34080660
Hf       0.00000000       0.00000000       3.76606061       0.00000000       0.00000000      -1.34080660
2
Properties=species:S:1:pos:R:3:forces:R:3 energy=-7.858574378539824 pbc="F F F"
Hf       0.00000000       0.00000000       0.00000000       0.00000000       0.00000000       1.23724067
Hf       0.00000000       0.00000000       3.82484848       0.00000000       0.00000000      -1.23724067
2
Properties=species:S:1:pos:R:3:forces:R:3 energy=-7.788748845618653 pbc="F F F"
Hf       0.00000000       0.00000000       0.00000000       0.00000000       0.00000000       1.13979745
Hf       0.00000000       0.00000000       3.88363636       0.00000000       0.00000000      -1.13979745
2
Properties=species:S:1:pos:R:3:forces:R:3 energy=-7.724334877315809 pbc="F F F"
Hf       0.00000000       0.00000000       0.00000000       0.00000000       0.00000000       1.05381775
Hf       0.00000000       0.00000000       3.94242424       0.00000000       0.00000000      -1.05381775
2
Properties=species:S:1:pos:R:3:forces:R:3 energy=-7.664569163702826 pbc="F F F"
Hf       0.00000000       0.00000000       0.00000000       0.00000000       0.00000000       0.98189586
Hf       0.00000000       0.00000000       4.00121212       0.00000000       0.00000000      -0.98189586
2
Properties=species:S:1:pos:R:3:forces:R:3 energy=-7.608612546064861 pbc="F F F"
Hf       0.00000000       0.00000000       0.00000000       0.00000000       0.00000000       0.92397708
Hf       0.00000000       0.00000000       4.06000000       0.00000000       0.00000000      -0.92397708
2
Properties=species:S:1:pos:R:3:forces:R:3 energy=-7.555706915332679 pbc="F F F"
Hf       0.00000000       0.00000000       0.00000000       0.00000000       0.00000000       0.87748551
Hf       0.00000000       0.00000000       4.11878788       0.00000000       0.00000000      -0.87748551
2
Properties=species:S:1:pos:R:3:forces:R:3 energy=-7.505307053557151 pbc="F F F"
Hf       0.00000000       0.00000000       0.00000000       0.00000000       0.00000000       0.83780646
Hf       0.00000000       0.00000000       4.17757576       0.00000000       0.00000000      -0.83780646
2
Properties=species:S:1:pos:R:3:forces:R:3 energy=-7.45717628810873 pbc="F F F"
Hf       0.00000000       0.00000000       0.00000000       0.00000000       0.00000000       0.79933602
Hf       0.00000000       0.00000000       4.23636364       0.00000000       0.00000000      -0.79933602
2
Properties=species:S:1:pos:R:3:forces:R:3 energy=-7.411403860555758 pbc="F F F"
Hf       0.00000000       0.00000000       0.00000000       0.00000000       0.00000000       0.75682074
Hf       0.00000000       0.00000000       4.29515152       0.00000000       0.00000000      -0.75682074
2
Properties=species:S:1:pos:R:3:forces:R:3 energy=-7.36834538537614 pbc="F F F"
Hf       0.00000000       0.00000000       0.00000000       0.00000000       0.00000000       0.70664877
Hf       0.00000000       0.00000000       4.35393939       0.00000000       0.00000000      -0.70664877
2
Properties=species:S:1:pos:R:3:forces:R:3 energy=-7.328494949892983 pbc="F F F"
Hf       0.00000000       0.00000000       0.00000000       0.00000000       0.00000000       0.64764863
Hf       0.00000000       0.00000000       4.41272727       0.00000000       0.00000000      -0.64764863
2
Properties=species:S:1:pos:R:3:forces:R:3 energy=-7.292344135202531 pbc="F F F"
Hf       0.00000000       0.00000000       0.00000000       0.00000000       0.00000000       0.58120292
Hf       0.00000000       0.00000000       4.47151515       0.00000000       0.00000000      -0.58120292
2
Properties=species:S:1:pos:R:3:forces:R:3 energy=-7.260240796347596 pbc="F F F"
Hf       0.00000000       0.00000000       0.00000000       0.00000000       0.00000000       0.51060927
Hf       0.00000000       0.00000000       4.53030303       0.00000000       0.00000000      -0.51060927
2
Properties=species:S:1:pos:R:3:forces:R:3 energy=-7.232309099394805 pbc="F F F"
Hf       0.00000000       0.00000000       0.00000000       0.00000000       0.00000000       0.43999556
Hf       0.00000000       0.00000000       4.58909091       0.00000000       0.00000000      -0.43999556
2
Properties=species:S:1:pos:R:3:forces:R:3 energy=-7.208432610386507 pbc="F F F"
Hf       0.00000000       0.00000000       0.00000000       0.00000000       0.00000000       0.37322789
Hf       0.00000000       0.00000000       4.64787879       0.00000000       0.00000000      -0.37322789
2
Properties=species:S:1:pos:R:3:forces:R:3 energy=-7.188293814140275 pbc="F F F"
Hf       0.00000000       0.00000000       0.00000000       0.00000000       0.00000000       0.31318414
Hf       0.00000000       0.00000000       4.70666667       0.00000000       0.00000000      -0.31318414
2
Properties=species:S:1:pos:R:3:forces:R:3 energy=-7.171443708795257 pbc="F F F"
Hf       0.00000000       0.00000000       0.00000000       0.00000000       0.00000000       0.26158336
Hf       0.00000000       0.00000000       4.76545455       0.00000000       0.00000000      -0.26158336
2
Properties=species:S:1:pos:R:3:forces:R:3 energy=-7.157356223773001 pbc="F F F"
Hf       0.00000000       0.00000000       0.00000000       0.00000000       0.00000000       0.21921693
Hf       0.00000000       0.00000000       4.82424242       0.00000000       0.00000000      -0.21921693
2
Properties=species:S:1:pos:R:3:forces:R:3 energy=-7.145483035539725 pbc="F F F"
Hf       0.00000000       0.00000000       0.00000000       0.00000000       0.00000000       0.18635181
Hf       0.00000000       0.00000000       4.88303030       0.00000000       0.00000000      -0.18635181
2
Properties=species:S:1:pos:R:3:forces:R:3 energy=-7.135262457953916 pbc="F F F"
Hf       0.00000000       0.00000000       0.00000000       0.00000000       0.00000000       0.16286066
Hf       0.00000000       0.00000000       4.94181818       0.00000000       0.00000000      -0.16286066
2
Properties=species:S:1:pos:R:3:forces:R:3 energy=-7.1261626602175046 pbc="F F F"
Hf       0.00000000       0.00000000       0.00000000       0.00000000       0.00000000       0.14807826
Hf       0.00000000       0.00000000       5.00060606       0.00000000       0.00000000      -0.14807826
2
Properties=species:S:1:pos:R:3:forces:R:3 energy=-7.117712276320839 pbc="F F F"
Hf       0.00000000       0.00000000       0.00000000       0.00000000       0.00000000       0.14036547
Hf       0.00000000       0.00000000       5.05939394       0.00000000       0.00000000      -0.14036547
2
Properties=species:S:1:pos:R:3:forces:R:3 energy=-7.109576028913681 pbc="F F F"
Hf       0.00000000       0.00000000       0.00000000       0.00000000       0.00000000       0.13686070
Hf       0.00000000       0.00000000       5.11818182       0.00000000       0.00000000      -0.13686070
2
Properties=species:S:1:pos:R:3:forces:R:3 energy=-7.101615796139683 pbc="F F F"
Hf       0.00000000       0.00000000       0.00000000       0.00000000       0.00000000       0.13363533
Hf       0.00000000       0.00000000       5.17696970       0.00000000       0.00000000      -0.13363533
2
Properties=species:S:1:pos:R:3:forces:R:3 energy=-7.093939239523054 pbc="F F F"
Hf       0.00000000       0.00000000       0.00000000       0.00000000       0.00000000       0.12663546
Hf       0.00000000       0.00000000       5.23575758       0.00000000       0.00000000      -0.12663546
2
Properties=species:S:1:pos:R:3:forces:R:3 energy=-7.086829534676087 pbc="F F F"
Hf       0.00000000       0.00000000       0.00000000       0.00000000       0.00000000       0.11467560
Hf       0.00000000       0.00000000       5.29454545       0.00000000       0.00000000      -0.11467560
2
Properties=species:S:1:pos:R:3:forces:R:3 energy=-7.080412624493935 pbc="F F F"
Hf       0.00000000       0.00000000       0.00000000       0.00000000       0.00000000       0.10531651
Hf       0.00000000       0.00000000       5.35333333       0.00000000       0.00000000      -0.10531651
2
Properties=species:S:1:pos:R:3:forces:R:3 energy=-7.074085816183613 pbc="F F F"
Hf       0.00000000       0.00000000       0.00000000       0.00000000       0.00000000       0.11383785
Hf       0.00000000       0.00000000       5.41212121       0.00000000       0.00000000      -0.11383785
2
Properties=species:S:1:pos:R:3:forces:R:3 energy=-7.066688435113667 pbc="F F F"
Hf       0.00000000       0.00000000       0.00000000       0.00000000       0.00000000       0.13833439
Hf       0.00000000       0.00000000       5.47090909       0.00000000       0.00000000      -0.13833439
2
Properties=species:S:1:pos:R:3:forces:R:3 energy=-7.058102535476032 pbc="F F F"
Hf       0.00000000       0.00000000       0.00000000       0.00000000       0.00000000       0.14932726
Hf       0.00000000       0.00000000       5.52969697       0.00000000       0.00000000      -0.14932726
2
Properties=species:S:1:pos:R:3:forces:R:3 energy=-7.049610989152739 pbc="F F F"
Hf       0.00000000       0.00000000       0.00000000       0.00000000       0.00000000       0.13710673
Hf       0.00000000       0.00000000       5.58848485       0.00000000       0.00000000      -0.13710673
2
Properties=species:S:1:pos:R:3:forces:R:3 energy=-7.042015279571772 pbc="F F F"
Hf       0.00000000       0.00000000       0.00000000       0.00000000       0.00000000       0.12308686
Hf       0.00000000       0.00000000       5.64727273       0.00000000       0.00000000      -0.12308686
2
Properties=species:S:1:pos:R:3:forces:R:3 energy=-7.034859709825435 pbc="F F F"
Hf       0.00000000       0.00000000       0.00000000       0.00000000       0.00000000       0.12229301
Hf       0.00000000       0.00000000       5.70606061       0.00000000       0.00000000      -0.12229301
2
Properties=species:S:1:pos:R:3:forces:R:3 energy=-7.027599164199494 pbc="F F F"
Hf       0.00000000       0.00000000       0.00000000       0.00000000       0.00000000       0.12228252
Hf       0.00000000       0.00000000       5.76484848       0.00000000       0.00000000      -0.12228252
2
Properties=species:S:1:pos:R:3:forces:R:3 energy=-7.020893174528461 pbc="F F F"
Hf       0.00000000       0.00000000       0.00000000       0.00000000       0.00000000       0.10202015
Hf       0.00000000       0.00000000       5.82363636       0.00000000       0.00000000      -0.10202015
2
Properties=species:S:1:pos:R:3:forces:R:3 energy=-7.01595930683431 pbc="F F F"
Hf       0.00000000       0.00000000       0.00000000       0.00000000       0.00000000       0.06517676
Hf       0.00000000       0.00000000       5.88242424       0.00000000       0.00000000      -0.06517676
2
Properties=species:S:1:pos:R:3:forces:R:3 energy=-7.013151289941515 pbc="F F F"
Hf       0.00000000       0.00000000       0.00000000       0.00000000       0.00000000       0.03239217
Hf       0.00000000       0.00000000       5.94121212       0.00000000       0.00000000      -0.03239217
2
Properties=species:S:1:pos:R:3:forces:R:3 energy=-7.011751035280523 pbc="F F F"
Hf       0.00000000       0.00000000       0.00000000       0.00000000       0.00000000       0.01939954
Hf       0.00000000       0.00000000       6.00000000       0.00000000       0.00000000      -0.01939954
