2
Properties=species:S:1:pos:R:3:forces:R:3 energy=74619.95200957572 pbc="F F F"
Hf       0.00000000       0.00000000       0.00000000       0.00000000       0.00000000 -1876086.50000000
Hf       0.00000000       0.00000000       0.10000000       0.00000000       0.00000000 1876086.50000000
2
Properties=species:S:1:pos:R:3:forces:R:3 energy=20667.621931450718 pbc="F F F"
Hf       0.00000000       0.00000000       0.00000000       0.00000000       0.00000000 -387744.12500000
Hf       0.00000000       0.00000000       0.15959596       0.00000000       0.00000000  387744.12500000
2
Properties=species:S:1:pos:R:3:forces:R:3 energy=7506.033064263218 pbc="F F F"
Hf       0.00000000       0.00000000       0.00000000       0.00000000       0.00000000 -116662.69531250
Hf       0.00000000       0.00000000       0.21919192       0.00000000       0.00000000  116662.69531250
2
Properties=species:S:1:pos:R:3:forces:R:3 energy=3164.5482009819675 pbc="F F F"
Hf       0.00000000       0.00000000       0.00000000       0.00000000       0.00000000  -42927.12109375
Hf       0.00000000       0.00000000       0.27878788       0.00000000       0.00000000   42927.12109375
2
Properties=species:S:1:pos:R:3:forces:R:3 energy=1476.8970779382605 pbc="F F F"
Hf       0.00000000       0.00000000       0.00000000       0.00000000       0.00000000  -17796.98046875
Hf       0.00000000       0.00000000       0.33838384       0.00000000       0.00000000   17796.98046875
2
Properties=species:S:1:pos:R:3:forces:R:3 energy=750.746076961698 pbc="F F F"
Hf       0.00000000       0.00000000       0.00000000       0.00000000       0.00000000   -8004.86279297
Hf       0.00000000       0.00000000       0.39797980       0.00000000       0.00000000    8004.86279297
2
Properties=species:S:1:pos:R:3:forces:R:3 energy=414.52784576052613 pbc="F F F"
Hf       0.00000000       0.00000000       0.00000000       0.00000000       0.00000000   -3839.13549805
Hf       0.00000000       0.00000000       0.45757576       0.00000000       0.00000000    3839.13549805
2
Properties=species:S:1:pos:R:3:forces:R:3 energy=249.18371430030302 pbc="F F F"
Hf       0.00000000       0.00000000       0.00000000       0.00000000       0.00000000   -1946.59948730
Hf       0.00000000       0.00000000       0.51717172       0.00000000       0.00000000    1946.59948730
2
Properties=species:S:1:pos:R:3:forces:R:3 energy=163.39364472972838 pbc="F F F"
Hf       0.00000000       0.00000000       0.00000000       0.00000000       0.00000000   -1038.76684570
Hf       0.00000000       0.00000000       0.57676768       0.00000000       0.00000000    1038.76684570
2
Properties=species:S:1:pos:R:3:forces:R:3 energy=116.5724701303211 pbc="F F F"
Hf       0.00000000       0.00000000       0.00000000       0.00000000       0.00000000    -582.90698242
Hf       0.00000000       0.00000000       0.63636364       0.00000000       0.00000000     582.90698242
2
Properties=species:S:1:pos:R:3:forces:R:3 energy=89.63674018469838 pbc="F F F"
Hf       0.00000000       0.00000000       0.00000000       0.00000000       0.00000000    -346.32135010
Hf       0.00000000       0.00000000       0.69595960       0.00000000       0.00000000     346.32135010
2
Properties=species:S:1:pos:R:3:forces:R:3 energy=73.08099224320804 pbc="F F F"
Hf       0.00000000       0.00000000       0.00000000       0.00000000       0.00000000    -222.82357788
Hf       0.00000000       0.00000000       0.75555556       0.00000000       0.00000000     222.82357788
2
Properties=species:S:1:pos:R:3:forces:R:3 energy=61.865065195212345 pbc="F F F"
Hf       0.00000000       0.00000000       0.00000000       0.00000000       0.00000000    -161.06863403
Hf       0.00000000       0.00000000       0.81515152       0.00000000       0.00000000     161.06863403
2
Properties=species:S:1:pos:R:3:forces:R:3 energy=53.22253676581493 pbc="F F F"
Hf       0.00000000       0.00000000       0.00000000       0.00000000       0.00000000    -132.92951965
Hf       0.00000000       0.00000000       0.87474747       0.00000000       0.00000000     132.92951965
2
Properties=species:S:1:pos:R:3:forces:R:3 energy=45.68584334170452 pbc="F F F"
Hf       0.00000000       0.00000000       0.00000000       0.00000000       0.00000000    -121.84712219
Hf       0.00000000       0.00000000       0.93434343       0.00000000       0.00000000     121.84712219
2
Properties=species:S:1:pos:R:3:forces:R:3 energy=38.57300862036086 pbc="F F F"
Hf       0.00000000       0.00000000       0.00000000       0.00000000       0.00000000    -117.22947693
Hf       0.00000000       0.00000000       0.99393939       0.00000000       0.00000000     117.22947693
2
Properties=species:S:1:pos:R:3:forces:R:3 energy=31.719901446736632 pbc="F F F"
Hf       0.00000000       0.00000000       0.00000000       0.00000000       0.00000000    -112.50416565
Hf       0.00000000       0.00000000       1.05353535       0.00000000       0.00000000     112.50416565
2
Properties=species:S:1:pos:R:3:forces:R:3 energy=25.166911860822847 pbc="F F F"
Hf       0.00000000       0.00000000       0.00000000       0.00000000       0.00000000    -107.76776123
Hf       0.00000000       0.00000000       1.11313131       0.00000000       0.00000000     107.76776123
2
Properties=species:S:1:pos:R:3:forces:R:3 energy=18.83704595203699 pbc="F F F"
Hf       0.00000000       0.00000000       0.00000000       0.00000000       0.00000000    -104.43720245
Hf       0.00000000       0.00000000       1.17272727       0.00000000       0.00000000     104.43720245
2
Properties=species:S:1:pos:R:3:forces:R:3 energy=12.836762400158596 pbc="F F F"
Hf       0.00000000       0.00000000       0.00000000       0.00000000       0.00000000     -95.40734863
Hf       0.00000000       0.00000000       1.23232323       0.00000000       0.00000000      95.40734863
2
Properties=species:S:1:pos:R:3:forces:R:3 energy=7.635581338379855 pbc="F F F"
Hf       0.00000000       0.00000000       0.00000000       0.00000000       0.00000000     -78.20394897
Hf       0.00000000       0.00000000       1.29191919       0.00000000       0.00000000      78.20394897
2
Properties=species:S:1:pos:R:3:forces:R:3 energy=3.541752275118586 pbc="F F F"
Hf       0.00000000       0.00000000       0.00000000       0.00000000       0.00000000     -59.51898193
Hf       0.00000000       0.00000000       1.35151515       0.00000000       0.00000000      59.51898193
2
Properties=species:S:1:pos:R:3:forces:R:3 energy=0.4814193936408023 pbc="F F F"
Hf       0.00000000       0.00000000       0.00000000       0.00000000       0.00000000     -43.68061829
Hf       0.00000000       0.00000000       1.41111111       0.00000000       0.00000000      43.68061829
2
Properties=species:S:1:pos:R:3:forces:R:3 energy=-1.7165145402989561 pbc="F F F"
Hf       0.00000000       0.00000000       0.00000000       0.00000000       0.00000000     -30.50686073
Hf       0.00000000       0.00000000       1.47070707       0.00000000       0.00000000      30.50686073
2
Properties=species:S:1:pos:R:3:forces:R:3 energy=-3.2167590313679284 pbc="F F F"
Hf       0.00000000       0.00000000       0.00000000       0.00000000       0.00000000     -20.47220993
Hf       0.00000000       0.00000000       1.53030303       0.00000000       0.00000000      20.47220993
2
Properties=species:S:1:pos:R:3:forces:R:3 energy=-4.234406668870609 pbc="F F F"
Hf       0.00000000       0.00000000       0.00000000       0.00000000       0.00000000     -14.27125549
Hf       0.00000000       0.00000000       1.58989899       0.00000000       0.00000000      14.27125549
2
Properties=species:S:1:pos:R:3:forces:R:3 energy=-4.97556116266745 pbc="F F F"
Hf       0.00000000       0.00000000       0.00000000       0.00000000       0.00000000     -10.99205780
Hf       0.00000000       0.00000000       1.64949495       0.00000000       0.00000000      10.99205780
2
Properties=species:S:1:pos:R:3:forces:R:3 energy=-5.582636990746346 pbc="F F F"
Hf       0.00000000       0.00000000       0.00000000       0.00000000       0.00000000      -9.63449574
Hf       0.00000000       0.00000000       1.70909091       0.00000000       0.00000000       9.63449574
2
Properties=species:S:1:pos:R:3:forces:R:3 energy=-6.1472130121556905 pbc="F F F"
Hf       0.00000000       0.00000000       0.00000000       0.00000000       0.00000000      -9.45772648
Hf       0.00000000       0.00000000       1.76868687       0.00000000       0.00000000       9.45772648
2
Properties=species:S:1:pos:R:3:forces:R:3 energy=-6.721990071238944 pbc="F F F"
Hf       0.00000000       0.00000000       0.00000000       0.00000000       0.00000000      -9.88545227
Hf       0.00000000       0.00000000       1.82828283       0.00000000       0.00000000       9.88545227
2
Properties=species:S:1:pos:R:3:forces:R:3 energy=-7.325375926294939 pbc="F F F"
Hf       0.00000000       0.00000000       0.00000000       0.00000000       0.00000000     -10.30687237
Hf       0.00000000       0.00000000       1.88787879       0.00000000       0.00000000      10.30687237
2
Properties=species:S:1:pos:R:3:forces:R:3 energy=-7.938430485022605 pbc="F F F"
Hf       0.00000000       0.00000000       0.00000000       0.00000000       0.00000000     -10.13622761
Hf       0.00000000       0.00000000       1.94747475       0.00000000       0.00000000      10.13622761
2
Properties=species:S:1:pos:R:3:forces:R:3 energy=-8.517465190388796 pbc="F F F"
Hf       0.00000000       0.00000000       0.00000000       0.00000000       0.00000000      -9.17278576
Hf       0.00000000       0.00000000       2.00707071       0.00000000       0.00000000       9.17278576
2
Properties=species:S:1:pos:R:3:forces:R:3 energy=-9.020577541460945 pbc="F F F"
Hf       0.00000000       0.00000000       0.00000000       0.00000000       0.00000000      -7.65277529
Hf       0.00000000       0.00000000       2.06666667       0.00000000       0.00000000       7.65277529
2
Properties=species:S:1:pos:R:3:forces:R:3 energy=-9.426824672852726 pbc="F F F"
Hf       0.00000000       0.00000000       0.00000000       0.00000000       0.00000000      -5.98778915
Hf       0.00000000       0.00000000       2.12626263       0.00000000       0.00000000       5.98778915
2
Properties=species:S:1:pos:R:3:forces:R:3 energy=-9.73753521761365 pbc="F F F"
Hf       0.00000000       0.00000000       0.00000000       0.00000000       0.00000000      -4.47966099
Hf       0.00000000       0.00000000       2.18585859       0.00000000       0.00000000       4.47966099
2
Properties=species:S:1:pos:R:3:forces:R:3 energy=-9.965976987441017 pbc="F F F"
Hf       0.00000000       0.00000000       0.00000000       0.00000000       0.00000000      -3.22949600
Hf       0.00000000       0.00000000       2.24545455       0.00000000       0.00000000       3.22949600
2
Properties=species:S:1:pos:R:3:forces:R:3 energy=-10.127045031680803 pbc="F F F"
Hf       0.00000000       0.00000000       0.00000000       0.00000000       0.00000000      -2.20877790
Hf       0.00000000       0.00000000       2.30505051       0.00000000       0.00000000       2.20877790
2
Properties=species:S:1:pos:R:3:forces:R:3 energy=-10.232511024266062 pbc="F F F"
Hf       0.00000000       0.00000000       0.00000000       0.00000000       0.00000000      -1.35303879
Hf       0.00000000       0.00000000       2.36464646       0.00000000       0.00000000       1.35303879
2
Properties=species:S:1:pos:R:3:forces:R:3 energy=-10.290541601166336 pbc="F F F"
Hf       0.00000000       0.00000000       0.00000000       0.00000000       0.00000000      -0.61008000
Hf       0.00000000       0.00000000       2.42424242       0.00000000       0.00000000       0.61008000
2
Properties=species:S:1:pos:R:3:forces:R:3 energy=-10.306859812000138 pbc="F F F"
Hf       0.00000000       0.00000000       0.00000000       0.00000000       0.00000000       0.05016814
Hf       0.00000000       0.00000000       2.48383838       0.00000000       0.00000000      -0.05016814
2
Properties=species:S:1:pos:R:3:forces:R:3 energy=-10.28594438916656 pbc="F F F"
Hf       0.00000000       0.00000000       0.00000000       0.00000000       0.00000000       0.64044422
Hf       0.00000000       0.00000000       2.54343434       0.00000000       0.00000000      -0.64044422
2
Properties=species:S:1:pos:R:3:forces:R:3 energy=-10.23187975343752 pbc="F F F"
Hf       0.00000000       0.00000000       0.00000000       0.00000000       0.00000000       1.16221428
Hf       0.00000000       0.00000000       2.60303030       0.00000000       0.00000000      -1.16221428
2
Properties=species:S:1:pos:R:3:forces:R:3 energy=-10.14888671605204 pbc="F F F"
Hf       0.00000000       0.00000000       0.00000000       0.00000000       0.00000000       1.60985839
Hf       0.00000000       0.00000000       2.66262626       0.00000000       0.00000000      -1.60985839
2
Properties=species:S:1:pos:R:3:forces:R:3 energy=-10.041673329174687 pbc="F F F"
Hf       0.00000000       0.00000000       0.00000000       0.00000000       0.00000000       1.97314799
Hf       0.00000000       0.00000000       2.72222222       0.00000000       0.00000000      -1.97314799
2
Properties=species:S:1:pos:R:3:forces:R:3 energy=-9.915597795829536 pbc="F F F"
Hf       0.00000000       0.00000000       0.00000000       0.00000000       0.00000000       2.24124479
Hf       0.00000000       0.00000000       2.78181818       0.00000000       0.00000000      -2.24124479
2
Properties=species:S:1:pos:R:3:forces:R:3 energy=-9.776518381261388 pbc="F F F"
Hf       0.00000000       0.00000000       0.00000000       0.00000000       0.00000000       2.40996790
Hf       0.00000000       0.00000000       2.84141414       0.00000000       0.00000000      -2.40996790
2
Properties=species:S:1:pos:R:3:forces:R:3 energy=-9.630163518250004 pbc="F F F"
Hf       0.00000000       0.00000000       0.00000000       0.00000000       0.00000000       2.48787951
Hf       0.00000000       0.00000000       2.90101010       0.00000000       0.00000000      -2.48787951
2
Properties=species:S:1:pos:R:3:forces:R:3 energy=-9.481396352350515 pbc="F F F"
Hf       0.00000000       0.00000000       0.00000000       0.00000000       0.00000000       2.49465990
Hf       0.00000000       0.00000000       2.96060606       0.00000000       0.00000000      -2.49465990
2
Properties=species:S:1:pos:R:3:forces:R:3 energy=-9.333788398628977 pbc="F F F"
Hf       0.00000000       0.00000000       0.00000000       0.00000000       0.00000000       2.45237231
Hf       0.00000000       0.00000000       3.02020202       0.00000000       0.00000000      -2.45237231
2
Properties=species:S:1:pos:R:3:forces:R:3 energy=-9.189741556872285 pbc="F F F"
Hf       0.00000000       0.00000000       0.00000000       0.00000000       0.00000000       2.37726712
Hf       0.00000000       0.00000000       3.07979798       0.00000000       0.00000000      -2.37726712
2
Properties=species:S:1:pos:R:3:forces:R:3 energy=-9.050906718609713 pbc="F F F"
Hf       0.00000000       0.00000000       0.00000000       0.00000000       0.00000000       2.27860713
Hf       0.00000000       0.00000000       3.13939394       0.00000000       0.00000000      -2.27860713
2
Properties=species:S:1:pos:R:3:forces:R:3 energy=-8.918464734354165 pbc="F F F"
Hf       0.00000000       0.00000000       0.00000000       0.00000000       0.00000000       2.16423774
Hf       0.00000000       0.00000000       3.19898990       0.00000000       0.00000000      -2.16423774
2
Properties=species:S:1:pos:R:3:forces:R:3 energy=-8.793025170035502 pbc="F F F"
Hf       0.00000000       0.00000000       0.00000000       0.00000000       0.00000000       2.04591870
Hf       0.00000000       0.00000000       3.25858586       0.00000000       0.00000000      -2.04591870
2
Properties=species:S:1:pos:R:3:forces:R:3 energy=-8.674414172960757 pbc="F F F"
Hf       0.00000000       0.00000000       0.00000000       0.00000000       0.00000000       1.93710077
Hf       0.00000000       0.00000000       3.31818182       0.00000000       0.00000000      -1.93710077
2
Properties=species:S:1:pos:R:3:forces:R:3 energy=-8.561788701300003 pbc="F F F"
Hf       0.00000000       0.00000000       0.00000000       0.00000000       0.00000000       1.84564853
Hf       0.00000000       0.00000000       3.37777778       0.00000000       0.00000000      -1.84564853
2
Properties=species:S:1:pos:R:3:forces:R:3 energy=-8.45407909422738 pbc="F F F"
Hf       0.00000000       0.00000000       0.00000000       0.00000000       0.00000000       1.77152753
Hf       0.00000000       0.00000000       3.43737374       0.00000000       0.00000000      -1.77152753
2
Properties=species:S:1:pos:R:3:forces:R:3 energy=-8.350401298948851 pbc="F F F"
Hf       0.00000000       0.00000000       0.00000000       0.00000000       0.00000000       1.70908999
Hf       0.00000000       0.00000000       3.49696970       0.00000000       0.00000000      -1.70908999
2
Properties=species:S:1:pos:R:3:forces:R:3 energy=-8.250331814098065 pbc="F F F"
Hf       0.00000000       0.00000000       0.00000000       0.00000000       0.00000000       1.64846981
Hf       0.00000000       0.00000000       3.55656566       0.00000000       0.00000000      -1.64846981
2
Properties=species:S:1:pos:R:3:forces:R:3 energy=-8.154101349212434 pbc="F F F"
Hf       0.00000000       0.00000000       0.00000000       0.00000000       0.00000000       1.57876074
Hf       0.00000000       0.00000000       3.61616162       0.00000000       0.00000000      -1.57876074
2
Properties=species:S:1:pos:R:3:forces:R:3 energy=-8.062468796306787 pbc="F F F"
Hf       0.00000000       0.00000000       0.00000000       0.00000000       0.00000000       1.49367797
Hf       0.00000000       0.00000000       3.67575758       0.00000000       0.00000000      -1.49367797
2
Properties=species:S:1:pos:R:3:forces:R:3 energy=-7.976344936629548 pbc="F F F"
Hf       0.00000000       0.00000000       0.00000000       0.00000000       0.00000000       1.39480162
Hf       0.00000000       0.00000000       3.73535354       0.00000000       0.00000000      -1.39480162
2
Properties=species:S:1:pos:R:3:forces:R:3 energy=-7.896346047619507 pbc="F F F"
Hf       0.00000000       0.00000000       0.00000000       0.00000000       0.00000000       1.28959131
Hf       0.00000000       0.00000000       3.79494949       0.00000000       0.00000000      -1.28959131
2
Properties=species:S:1:pos:R:3:forces:R:3 energy=-7.822584956973909 pbc="F F F"
Hf       0.00000000       0.00000000       0.00000000       0.00000000       0.00000000       1.18685305
Hf       0.00000000       0.00000000       3.85454545       0.00000000       0.00000000      -1.18685305
2
Properties=species:S:1:pos:R:3:forces:R:3 energy=-7.754694544430447 pbc="F F F"
Hf       0.00000000       0.00000000       0.00000000       0.00000000       0.00000000       1.09352624
Hf       0.00000000       0.00000000       3.91414141       0.00000000       0.00000000      -1.09352624
2
Properties=species:S:1:pos:R:3:forces:R:3 energy=-7.691975090465093 pbc="F F F"
Hf       0.00000000       0.00000000       0.00000000       0.00000000       0.00000000       1.01370084
Hf       0.00000000       0.00000000       3.97373737       0.00000000       0.00000000      -1.01370084
2
Properties=species:S:1:pos:R:3:forces:R:3 energy=-7.633574561759734 pbc="F F F"
Hf       0.00000000       0.00000000       0.00000000       0.00000000       0.00000000       0.94862449
Hf       0.00000000       0.00000000       4.03333333       0.00000000       0.00000000      -0.94862449
2
Properties=species:S:1:pos:R:3:forces:R:3 energy=-7.578642623268625 pbc="F F F"
Hf       0.00000000       0.00000000       0.00000000       0.00000000       0.00000000       0.89678568
Hf       0.00000000       0.00000000       4.09292929       0.00000000       0.00000000      -0.89678568
2
Properties=species:S:1:pos:R:3:forces:R:3 energy=-7.526499048770425 pbc="F F F"
Hf       0.00000000       0.00000000       0.00000000       0.00000000       0.00000000       0.85423458
Hf       0.00000000       0.00000000       4.15252525       0.00000000       0.00000000      -0.85423458
2
Properties=species:S:1:pos:R:3:forces:R:3 energy=-7.476751132178902 pbc="F F F"
Hf       0.00000000       0.00000000       0.00000000       0.00000000       0.00000000       0.81541449
Hf       0.00000000       0.00000000       4.21212121       0.00000000       0.00000000      -0.81541449
2
Properties=species:S:1:pos:R:3:forces:R:3 energy=-7.429349724580565 pbc="F F F"
Hf       0.00000000       0.00000000       0.00000000       0.00000000       0.00000000       0.77453446
Hf       0.00000000       0.00000000       4.27171717       0.00000000       0.00000000      -0.77453446
2
Properties=species:S:1:pos:R:3:forces:R:3 energy=-7.384566791210014 pbc="F F F"
Hf       0.00000000       0.00000000       0.00000000       0.00000000       0.00000000       0.72700065
Hf       0.00000000       0.00000000       4.33131313       0.00000000       0.00000000      -0.72700065
2
Properties=species:S:1:pos:R:3:forces:R:3 energy=-7.342876805710431 pbc="F F F"
Hf       0.00000000       0.00000000       0.00000000       0.00000000       0.00000000       0.67053908
Hf       0.00000000       0.00000000       4.39090909       0.00000000       0.00000000      -0.67053908
2
Properties=species:S:1:pos:R:3:forces:R:3 energy=-7.304812675619713 pbc="F F F"
Hf       0.00000000       0.00000000       0.00000000       0.00000000       0.00000000       0.60562545
Hf       0.00000000       0.00000000       4.45050505       0.00000000       0.00000000      -0.60562545
2
Properties=species:S:1:pos:R:3:forces:R:3 energy=-7.270804195944153 pbc="F F F"
Hf       0.00000000       0.00000000       0.00000000       0.00000000       0.00000000       0.53508490
Hf       0.00000000       0.00000000       4.51010101       0.00000000       0.00000000      -0.53508490
2
Properties=species:S:1:pos:R:3:forces:R:3 energy=-7.241064555579142 pbc="F F F"
Hf       0.00000000       0.00000000       0.00000000       0.00000000       0.00000000       0.46303788
Hf       0.00000000       0.00000000       4.56969697       0.00000000       0.00000000      -0.46303788
2
Properties=species:S:1:pos:R:3:forces:R:3 energy=-7.215558313191838 pbc="F F F"
Hf       0.00000000       0.00000000       0.00000000       0.00000000       0.00000000       0.39372015
Hf       0.00000000       0.00000000       4.62929293       0.00000000       0.00000000      -0.39372015
2
Properties=species:S:1:pos:R:3:forces:R:3 energy=-7.194015078115099 pbc="F F F"
Hf       0.00000000       0.00000000       0.00000000       0.00000000       0.00000000       0.33050960
Hf       0.00000000       0.00000000       4.68888889       0.00000000       0.00000000      -0.33050960
2
Properties=species:S:1:pos:R:3:forces:R:3 energy=-7.175999695772593 pbc="F F F"
Hf       0.00000000       0.00000000       0.00000000       0.00000000       0.00000000       0.27555180
Hf       0.00000000       0.00000000       4.74848485       0.00000000       0.00000000      -0.27555180
2
Properties=species:S:1:pos:R:3:forces:R:3 energy=-7.160985438182848 pbc="F F F"
Hf       0.00000000       0.00000000       0.00000000       0.00000000       0.00000000       0.22992423
Hf       0.00000000       0.00000000       4.80808081       0.00000000       0.00000000      -0.22992423
2
Properties=species:S:1:pos:R:3:forces:R:3 energy=-7.148401198166621 pbc="F F F"
Hf       0.00000000       0.00000000       0.00000000       0.00000000       0.00000000       0.19401698
Hf       0.00000000       0.00000000       4.86767677       0.00000000       0.00000000      -0.19401698
2
Properties=species:S:1:pos:R:3:forces:R:3 energy=-7.137666696101047 pbc="F F F"
Hf       0.00000000       0.00000000       0.00000000       0.00000000       0.00000000       0.16782275
Hf       0.00000000       0.00000000       4.92727273       0.00000000       0.00000000      -0.16782275
2
Properties=species:S:1:pos:R:3:forces:R:3 energy=-7.12821488176262 pbc="F F F"
Hf       0.00000000       0.00000000       0.00000000       0.00000000       0.00000000       0.15081978
Hf       0.00000000       0.00000000       4.98686869       0.00000000       0.00000000      -0.15081978
2
Properties=species:S:1:pos:R:3:forces:R:3 energy=-7.119535787506625 pbc="F F F"
Hf       0.00000000       0.00000000       0.00000000       0.00000000       0.00000000       0.14158137
Hf       0.00000000       0.00000000       5.04646465       0.00000000       0.00000000      -0.14158137
2
Properties=species:S:1:pos:R:3:forces:R:3 energy=-7.1112384790838465 pbc="F F F"
Hf       0.00000000       0.00000000       0.00000000       0.00000000       0.00000000       0.13741945
Hf       0.00000000       0.00000000       5.10606061       0.00000000       0.00000000      -0.13741945
2
Properties=species:S:1:pos:R:3:forces:R:3 energy=-7.103131558756924 pbc="F F F"
Hf       0.00000000       0.00000000       0.00000000       0.00000000       0.00000000       0.13443655
Hf       0.00000000       0.00000000       5.16565657       0.00000000       0.00000000      -0.13443655
2
Properties=species:S:1:pos:R:3:forces:R:3 energy=-7.0952779920700815 pbc="F F F"
Hf       0.00000000       0.00000000       0.00000000       0.00000000       0.00000000       0.12829366
Hf       0.00000000       0.00000000       5.22525253       0.00000000       0.00000000      -0.12829366
2
Properties=species:S:1:pos:R:3:forces:R:3 energy=-7.087951588954847 pbc="F F F"
Hf       0.00000000       0.00000000       0.00000000       0.00000000       0.00000000       0.11682002
Hf       0.00000000       0.00000000       5.28484848       0.00000000       0.00000000      -0.11682002
2
Properties=species:S:1:pos:R:3:forces:R:3 energy=-7.081350948952457 pbc="F F F"
Hf       0.00000000       0.00000000       0.00000000       0.00000000       0.00000000       0.10594546
Hf       0.00000000       0.00000000       5.34444444       0.00000000       0.00000000      -0.10594546
2
Properties=species:S:1:pos:R:3:forces:R:3 energy=-7.074993706960548 pbc="F F F"
Hf       0.00000000       0.00000000       0.00000000       0.00000000       0.00000000       0.11129831
Hf       0.00000000       0.00000000       5.40404040       0.00000000       0.00000000      -0.11129831
2
Properties=species:S:1:pos:R:3:forces:R:3 energy=-7.067681247283447 pbc="F F F"
Hf       0.00000000       0.00000000       0.00000000       0.00000000       0.00000000       0.13540775
Hf       0.00000000       0.00000000       5.46363636       0.00000000       0.00000000      -0.13540775
2
Properties=species:S:1:pos:R:3:forces:R:3 energy=-7.05907027020659 pbc="F F F"
Hf       0.00000000       0.00000000       0.00000000       0.00000000       0.00000000       0.14945327
Hf       0.00000000       0.00000000       5.52323232       0.00000000       0.00000000      -0.14945327
2
Properties=species:S:1:pos:R:3:forces:R:3 energy=-7.050391388761755 pbc="F F F"
Hf       0.00000000       0.00000000       0.00000000       0.00000000       0.00000000       0.13876781
Hf       0.00000000       0.00000000       5.58282828       0.00000000       0.00000000      -0.13876781
2
Properties=species:S:1:pos:R:3:forces:R:3 energy=-7.042611239928239 pbc="F F F"
Hf       0.00000000       0.00000000       0.00000000       0.00000000       0.00000000       0.12379546
Hf       0.00000000       0.00000000       5.64242424       0.00000000       0.00000000      -0.12379546
2
Properties=species:S:1:pos:R:3:forces:R:3 energy=-7.035346799283544 pbc="F F F"
Hf       0.00000000       0.00000000       0.00000000       0.00000000       0.00000000       0.12207897
Hf       0.00000000       0.00000000       5.70202020       0.00000000       0.00000000      -0.12207897
2
Properties=species:S:1:pos:R:3:forces:R:3 energy=-7.028009230982522 pbc="F F F"
Hf       0.00000000       0.00000000       0.00000000       0.00000000       0.00000000       0.12261428
Hf       0.00000000       0.00000000       5.76161616       0.00000000       0.00000000      -0.12261428
2
Properties=species:S:1:pos:R:3:forces:R:3 energy=-7.021150422039173 pbc="F F F"
Hf       0.00000000       0.00000000       0.00000000       0.00000000       0.00000000       0.10327593
Hf       0.00000000       0.00000000       5.82121212       0.00000000       0.00000000      -0.10327593
2
Properties=species:S:1:pos:R:3:forces:R:3 energy=-7.016074887565014 pbc="F F F"
Hf       0.00000000       0.00000000       0.00000000       0.00000000       0.00000000       0.06620972
Hf       0.00000000       0.00000000       5.88080808       0.00000000       0.00000000      -0.06620972
2
Properties=species:S:1:pos:R:3:forces:R:3 energy=-7.013174569881444 pbc="F F F"
Hf       0.00000000       0.00000000       0.00000000       0.00000000       0.00000000       0.03272275
Hf       0.00000000       0.00000000       5.94040404       0.00000000       0.00000000      -0.03272275
2
Properties=species:S:1:pos:R:3:forces:R:3 energy=-7.011751035280523 pbc="F F F"
Hf       0.00000000       0.00000000       0.00000000       0.00000000       0.00000000       0.01939954
Hf       0.00000000       0.00000000       6.00000000       0.00000000       0.00000000      -0.01939954
