2
Properties=species:S:1:pos:R:3:forces:R:3 energy=14292.818220513218 pbc="F F F"
Hf       0.00000000       0.00000000       0.00000000       0.00000000       0.00000000 -249242.70312500
Hf       0.00000000       0.00000000       0.18000000       0.00000000       0.00000000  249242.70312500
2
Properties=species:S:1:pos:R:3:forces:R:3 energy=5576.276228325718 pbc="F F F"
Hf       0.00000000       0.00000000       0.00000000       0.00000000       0.00000000  -82566.84375000
Hf       0.00000000       0.00000000       0.23878788       0.00000000       0.00000000   82566.84375000
2
Properties=species:S:1:pos:R:3:forces:R:3 energy=2464.4329666069675 pbc="F F F"
Hf       0.00000000       0.00000000       0.00000000       0.00000000       0.00000000  -32183.08203125
Hf       0.00000000       0.00000000       0.29757576       0.00000000       0.00000000   32183.08203125
2
Properties=species:S:1:pos:R:3:forces:R:3 energy=1193.7469314538855 pbc="F F F"
Hf       0.00000000       0.00000000       0.00000000       0.00000000       0.00000000  -13879.93359375
Hf       0.00000000       0.00000000       0.35636364       0.00000000       0.00000000   13879.93359375
2
Properties=species:S:1:pos:R:3:forces:R:3 energy=627.282209774198 pbc="F F F"
Hf       0.00000000       0.00000000       0.00000000       0.00000000       0.00000000   -6438.04394531
Hf       0.00000000       0.00000000       0.41515152       0.00000000       0.00000000    6438.04394531
2
Properties=species:S:1:pos:R:3:forces:R:3 energy=357.38184966994396 pbc="F F F"
Hf       0.00000000       0.00000000       0.00000000       0.00000000       0.00000000   -3169.17529297
Hf       0.00000000       0.00000000       0.47393939       0.00000000       0.00000000    3169.17529297
2
Properties=species:S:1:pos:R:3:forces:R:3 energy=221.3282302946818 pbc="F F F"
Hf       0.00000000       0.00000000       0.00000000       0.00000000       0.00000000   -1644.33496094
Hf       0.00000000       0.00000000       0.53272727       0.00000000       0.00000000    1644.33496094
2
Properties=species:S:1:pos:R:3:forces:R:3 energy=149.15594332004838 pbc="F F F"
Hf       0.00000000       0.00000000       0.00000000       0.00000000       0.00000000    -896.09985352
Hf       0.00000000       0.00000000       0.59151515       0.00000000       0.00000000     896.09985352
2
Properties=species:S:1:pos:R:3:forces:R:3 energy=108.94537204999281 pbc="F F F"
Hf       0.00000000       0.00000000       0.00000000       0.00000000       0.00000000    -513.17736816
Hf       0.00000000       0.00000000       0.65030303       0.00000000       0.00000000     513.17736816
2
Properties=species:S:1:pos:R:3:forces:R:3 energy=85.32154701476449 pbc="F F F"
Hf       0.00000000       0.00000000       0.00000000       0.00000000       0.00000000    -311.73925781
Hf       0.00000000       0.00000000       0.70909091       0.00000000       0.00000000     311.73925781
2
Properties=species:S:1:pos:R:3:forces:R:3 energy=70.44026807375043 pbc="F F F"
Hf       0.00000000       0.00000000       0.00000000       0.00000000       0.00000000    -206.14355469
Hf       0.00000000       0.00000000       0.76787879       0.00000000       0.00000000     206.14355469
2
Properties=species:S:1:pos:R:3:forces:R:3 energy=60.054236048453795 pbc="F F F"
Hf       0.00000000       0.00000000       0.00000000       0.00000000       0.00000000    -153.65066528
Hf       0.00000000       0.00000000       0.82666667       0.00000000       0.00000000     153.65066528
2
Properties=species:S:1:pos:R:3:forces:R:3 energy=51.81525300819852 pbc="F F F"
Hf       0.00000000       0.00000000       0.00000000       0.00000000       0.00000000    -130.03849792
Hf       0.00000000       0.00000000       0.88545455       0.00000000       0.00000000     130.03849792
2
Properties=species:S:1:pos:R:3:forces:R:3 energy=44.484602833831964 pbc="F F F"
Hf       0.00000000       0.00000000       0.00000000       0.00000000       0.00000000    -120.86814117
Hf       0.00000000       0.00000000       0.94424242       0.00000000       0.00000000     120.86814117
2
Properties=species:S:1:pos:R:3:forces:R:3 energy=37.510073779718624 pbc="F F F"
Hf       0.00000000       0.00000000       0.00000000       0.00000000       0.00000000    -116.60320282
Hf       0.00000000       0.00000000       1.00303030       0.00000000       0.00000000     116.60320282
2
Properties=species:S:1:pos:R:3:forces:R:3 energy=30.791209630240292 pbc="F F F"
Hf       0.00000000       0.00000000       0.00000000       0.00000000       0.00000000    -111.75186157
Hf       0.00000000       0.00000000       1.06181818       0.00000000       0.00000000     111.75186157
2
Properties=species:S:1:pos:R:3:forces:R:3 energy=24.36294539562685 pbc="F F F"
Hf       0.00000000       0.00000000       0.00000000       0.00000000       0.00000000    -107.35807037
Hf       0.00000000       0.00000000       1.12060606       0.00000000       0.00000000     107.35807037
2
Properties=species:S:1:pos:R:3:forces:R:3 energy=18.142664301526246 pbc="F F F"
Hf       0.00000000       0.00000000       0.00000000       0.00000000       0.00000000    -103.85483551
Hf       0.00000000       0.00000000       1.17939394       0.00000000       0.00000000     103.85483551
2
Properties=species:S:1:pos:R:3:forces:R:3 energy=12.281863257320264 pbc="F F F"
Hf       0.00000000       0.00000000       0.00000000       0.00000000       0.00000000     -94.01456451
Hf       0.00000000       0.00000000       1.23818182       0.00000000       0.00000000      94.01456451
2
Properties=species:S:1:pos:R:3:forces:R:3 energy=7.244759006991913 pbc="F F F"
Hf       0.00000000       0.00000000       0.00000000       0.00000000       0.00000000     -76.56887817
Hf       0.00000000       0.00000000       1.29696970       0.00000000       0.00000000      76.56887817
2
Properties=species:S:1:pos:R:3:forces:R:3 energy=3.2918381945060826 pbc="F F F"
Hf       0.00000000       0.00000000       0.00000000       0.00000000       0.00000000     -58.28889465
Hf       0.00000000       0.00000000       1.35575758       0.00000000       0.00000000      58.28889465
2
Properties=species:S:1:pos:R:3:forces:R:3 energy=0.3328427427218049 pbc="F F F"
Hf       0.00000000       0.00000000       0.00000000       0.00000000       0.00000000     -42.85351181
Hf       0.00000000       0.00000000       1.41454545       0.00000000       0.00000000      42.85351181
2
Properties=species:S:1:pos:R:3:forces:R:3 energy=-1.7959521969677579 pbc="F F F"
Hf       0.00000000       0.00000000       0.00000000       0.00000000       0.00000000     -29.98875427
Hf       0.00000000       0.00000000       1.47333333       0.00000000       0.00000000      29.98875427
2
Properties=species:S:1:pos:R:3:forces:R:3 energy=-3.253754855767833 pbc="F F F"
Hf       0.00000000       0.00000000       0.00000000       0.00000000       0.00000000     -20.22775650
Hf       0.00000000       0.00000000       1.53212121       0.00000000       0.00000000      20.22775650
2
Properties=species:S:1:pos:R:3:forces:R:3 energy=-4.248781351156645 pbc="F F F"
Hf       0.00000000       0.00000000       0.00000000       0.00000000       0.00000000     -14.19479752
Hf       0.00000000       0.00000000       1.59090909       0.00000000       0.00000000      14.19479752
2
Properties=species:S:1:pos:R:3:forces:R:3 energy=-4.977781777474092 pbc="F F F"
Hf       0.00000000       0.00000000       0.00000000       0.00000000       0.00000000     -10.98467731
Hf       0.00000000       0.00000000       1.64969697       0.00000000       0.00000000      10.98467731
2
Properties=species:S:1:pos:R:3:forces:R:3 energy=-5.576791488373444 pbc="F F F"
Hf       0.00000000       0.00000000       0.00000000       0.00000000       0.00000000      -9.64125538
Hf       0.00000000       0.00000000       1.70848485       0.00000000       0.00000000       9.64125538
2
Properties=species:S:1:pos:R:3:forces:R:3 energy=-6.133845473304221 pbc="F F F"
Hf       0.00000000       0.00000000       0.00000000       0.00000000       0.00000000      -9.45279980
Hf       0.00000000       0.00000000       1.76727273       0.00000000       0.00000000       9.45279980
2
Properties=species:S:1:pos:R:3:forces:R:3 energy=-6.700042419597432 pbc="F F F"
Hf       0.00000000       0.00000000       0.00000000       0.00000000       0.00000000      -9.86543465
Hf       0.00000000       0.00000000       1.82606061       0.00000000       0.00000000       9.86543465
2
Properties=species:S:1:pos:R:3:forces:R:3 energy=-7.294153928142729 pbc="F F F"
Hf       0.00000000       0.00000000       0.00000000       0.00000000       0.00000000     -10.29589272
Hf       0.00000000       0.00000000       1.88484848       0.00000000       0.00000000      10.29589272
2
Properties=species:S:1:pos:R:3:forces:R:3 energy=-7.899457616073222 pbc="F F F"
Hf       0.00000000       0.00000000       0.00000000       0.00000000       0.00000000     -10.17154598
Hf       0.00000000       0.00000000       1.94363636       0.00000000       0.00000000      10.17154598
2
Properties=species:S:1:pos:R:3:forces:R:3 energy=-8.47460683203081 pbc="F F F"
Hf       0.00000000       0.00000000       0.00000000       0.00000000       0.00000000      -9.27292252
Hf       0.00000000       0.00000000       2.00242424       0.00000000       0.00000000       9.27292252
2
Properties=species:S:1:pos:R:3:forces:R:3 energy=-8.9784222628217 pbc="F F F"
Hf       0.00000000       0.00000000       0.00000000       0.00000000       0.00000000      -7.80401039
Hf       0.00000000       0.00000000       2.06121212       0.00000000       0.00000000       7.80401039
2
Properties=species:S:1:pos:R:3:forces:R:3 energy=-9.388791488223383 pbc="F F F"
Hf       0.00000000       0.00000000       0.00000000       0.00000000       0.00000000      -6.15889549
Hf       0.00000000       0.00000000       2.12000000       0.00000000       0.00000000       6.15889549
2
Properties=species:S:1:pos:R:3:forces:R:3 energy=-9.705280662449626 pbc="F F F"
Hf       0.00000000       0.00000000       0.00000000       0.00000000       0.00000000      -4.64545965
Hf       0.00000000       0.00000000       2.17878788       0.00000000       0.00000000       4.64545965
2
Properties=species:S:1:pos:R:3:forces:R:3 energy=-9.939939739256573 pbc="F F F"
Hf       0.00000000       0.00000000       0.00000000       0.00000000       0.00000000      -3.38030720
Hf       0.00000000       0.00000000       2.23757576       0.00000000       0.00000000       3.38030720
2
Properties=species:S:1:pos:R:3:forces:R:3 energy=-10.107265052930384 pbc="F F F"
Hf       0.00000000       0.00000000       0.00000000       0.00000000       0.00000000      -2.34578204
Hf       0.00000000       0.00000000       2.29636364       0.00000000       0.00000000       2.34578204
2
Properties=species:S:1:pos:R:3:forces:R:3 energy=-10.219058557395577 pbc="F F F"
Hf       0.00000000       0.00000000       0.00000000       0.00000000       0.00000000      -1.48074555
Hf       0.00000000       0.00000000       2.35515152       0.00000000       0.00000000       1.48074555
2
Properties=species:S:1:pos:R:3:forces:R:3 energy=-10.283630769898414 pbc="F F F"
Hf       0.00000000       0.00000000       0.00000000       0.00000000       0.00000000      -0.73203254
Hf       0.00000000       0.00000000       2.41393939       0.00000000       0.00000000       0.73203254
2
Properties=species:S:1:pos:R:3:forces:R:3 energy=-10.306766107994825 pbc="F F F"
Hf       0.00000000       0.00000000       0.00000000       0.00000000       0.00000000      -0.06742526
Hf       0.00000000       0.00000000       2.47272727       0.00000000       0.00000000       0.06742526
2
Properties=species:S:1:pos:R:3:forces:R:3 energy=-10.292908430110929 pbc="F F F"
Hf       0.00000000       0.00000000       0.00000000       0.00000000       0.00000000       0.52779287
Hf       0.00000000       0.00000000       2.53151515       0.00000000       0.00000000      -0.52779287
2
Properties=species:S:1:pos:R:3:forces:R:3 energy=-10.246005648702715 pbc="F F F"
Hf       0.00000000       0.00000000       0.00000000       0.00000000       0.00000000       1.05673265
Hf       0.00000000       0.00000000       2.59030303       0.00000000       0.00000000      -1.05673265
2
Properties=species:S:1:pos:R:3:forces:R:3 energy=-10.170041316332563 pbc="F F F"
Hf       0.00000000       0.00000000       0.00000000       0.00000000       0.00000000       1.51517963
Hf       0.00000000       0.00000000       2.64909091       0.00000000       0.00000000      -1.51517963
2
Properties=species:S:1:pos:R:3:forces:R:3 energy=-10.069412980627382 pbc="F F F"
Hf       0.00000000       0.00000000       0.00000000       0.00000000       0.00000000       1.89404798
Hf       0.00000000       0.00000000       2.70787879       0.00000000       0.00000000      -1.89404798
2
Properties=species:S:1:pos:R:3:forces:R:3 energy=-9.949119560291317 pbc="F F F"
Hf       0.00000000       0.00000000       0.00000000       0.00000000       0.00000000       2.18252945
Hf       0.00000000       0.00000000       2.76666667       0.00000000       0.00000000      -2.18252945
2
Properties=species:S:1:pos:R:3:forces:R:3 energy=-9.814702375209686 pbc="F F F"
Hf       0.00000000       0.00000000       0.00000000       0.00000000       0.00000000       2.37429237
Hf       0.00000000       0.00000000       2.82545455       0.00000000       0.00000000      -2.37429237
2
Properties=species:S:1:pos:R:3:forces:R:3 energy=-9.671770292027746 pbc="F F F"
Hf       0.00000000       0.00000000       0.00000000       0.00000000       0.00000000       2.47413540
Hf       0.00000000       0.00000000       2.88424242       0.00000000       0.00000000      -2.47413540
2
Properties=species:S:1:pos:R:3:forces:R:3 energy=-9.525283868895754 pbc="F F F"
Hf       0.00000000       0.00000000       0.00000000       0.00000000       0.00000000       2.49869084
Hf       0.00000000       0.00000000       2.94303030       0.00000000       0.00000000      -2.49869084
2
Properties=species:S:1:pos:R:3:forces:R:3 energy=-9.379036309071155 pbc="F F F"
Hf       0.00000000       0.00000000       0.00000000       0.00000000       0.00000000       2.46951127
Hf       0.00000000       0.00000000       3.00181818       0.00000000       0.00000000      -2.46951127
2
Properties=species:S:1:pos:R:3:forces:R:3 energy=-9.235629372929658 pbc="F F F"
Hf       0.00000000       0.00000000       0.00000000       0.00000000       0.00000000       2.40437460
Hf       0.00000000       0.00000000       3.06060606       0.00000000       0.00000000      -2.40437460
2
Properties=species:S:1:pos:R:3:forces:R:3 energy=-9.096835249974658 pbc="F F F"
Hf       0.00000000       0.00000000       0.00000000       0.00000000       0.00000000       2.31390905
Hf       0.00000000       0.00000000       3.11939394       0.00000000       0.00000000      -2.31390905
2
Properties=species:S:1:pos:R:3:forces:R:3 energy=-8.963927109978869 pbc="F F F"
Hf       0.00000000       0.00000000       0.00000000       0.00000000       0.00000000       2.20532060
Hf       0.00000000       0.00000000       3.17818182       0.00000000       0.00000000      -2.20532060
2
Properties=species:S:1:pos:R:3:forces:R:3 energy=-8.837708734066998 pbc="F F F"
Hf       0.00000000       0.00000000       0.00000000       0.00000000       0.00000000       2.08839345
Hf       0.00000000       0.00000000       3.23696970       0.00000000       0.00000000      -2.08839345
2
Properties=species:S:1:pos:R:3:forces:R:3 energy=-8.71828576806474 pbc="F F F"
Hf       0.00000000       0.00000000       0.00000000       0.00000000       0.00000000       1.97624588
Hf       0.00000000       0.00000000       3.29575758       0.00000000       0.00000000      -1.97624588
2
Properties=species:S:1:pos:R:3:forces:R:3 energy=-8.6050498963778 pbc="F F F"
Hf       0.00000000       0.00000000       0.00000000       0.00000000       0.00000000       1.87908721
Hf       0.00000000       0.00000000       3.35454545       0.00000000       0.00000000      -1.87908721
2
Properties=species:S:1:pos:R:3:forces:R:3 energy=-8.497001424779553 pbc="F F F"
Hf       0.00000000       0.00000000       0.00000000       0.00000000       0.00000000       1.79959595
Hf       0.00000000       0.00000000       3.41333333       0.00000000       0.00000000      -1.79959595
2
Properties=species:S:1:pos:R:3:forces:R:3 energy=-8.39318015383499 pbc="F F F"
Hf       0.00000000       0.00000000       0.00000000       0.00000000       0.00000000       1.73425698
Hf       0.00000000       0.00000000       3.47212121       0.00000000       0.00000000      -1.73425698
2
Properties=species:S:1:pos:R:3:forces:R:3 energy=-8.292972529515193 pbc="F F F"
Hf       0.00000000       0.00000000       0.00000000       0.00000000       0.00000000       1.67508674
Hf       0.00000000       0.00000000       3.53090909       0.00000000       0.00000000      -1.67508674
2
Properties=species:S:1:pos:R:3:forces:R:3 energy=-8.196320187267428 pbc="F F F"
Hf       0.00000000       0.00000000       0.00000000       0.00000000       0.00000000       1.61141074
Hf       0.00000000       0.00000000       3.58969697       0.00000000       0.00000000      -1.61141074
2
Properties=species:S:1:pos:R:3:forces:R:3 energy=-8.103771180291778 pbc="F F F"
Hf       0.00000000       0.00000000       0.00000000       0.00000000       0.00000000       1.53460360
Hf       0.00000000       0.00000000       3.64848485       0.00000000       0.00000000      -1.53460360
2
Properties=species:S:1:pos:R:3:forces:R:3 energy=-8.016189553590191 pbc="F F F"
Hf       0.00000000       0.00000000       0.00000000       0.00000000       0.00000000       1.44272172
Hf       0.00000000       0.00000000       3.70727273       0.00000000       0.00000000      -1.44272172
2
Properties=species:S:1:pos:R:3:forces:R:3 energy=-7.934340031734326 pbc="F F F"
Hf       0.00000000       0.00000000       0.00000000       0.00000000       0.00000000       1.34080637
Hf       0.00000000       0.00000000       3.76606061       0.00000000       0.00000000      -1.34080637
2
Properties=species:S:1:pos:R:3:forces:R:3 energy=-7.858574861712627 pbc="F F F"
Hf       0.00000000       0.00000000       0.00000000       0.00000000       0.00000000       1.23724031
Hf       0.00000000       0.00000000       3.82484848       0.00000000       0.00000000      -1.23724031
2
Properties=species:S:1:pos:R:3:forces:R:3 energy=-7.788748845618653 pbc="F F F"
Hf       0.00000000       0.00000000       0.00000000       0.00000000       0.00000000       1.13979983
Hf       0.00000000       0.00000000       3.88363636       0.00000000       0.00000000      -1.13979983
2
Properties=species:S:1:pos:R:3:forces:R:3 energy=-7.724334877315809 pbc="F F F"
Hf       0.00000000       0.00000000       0.00000000       0.00000000       0.00000000       1.05381751
Hf       0.00000000       0.00000000       3.94242424       0.00000000       0.00000000      -1.05381751
2
Properties=species:S:1:pos:R:3:forces:R:3 energy=-7.664569163702826 pbc="F F F"
Hf       0.00000000       0.00000000       0.00000000       0.00000000       0.00000000       0.98189741
Hf       0.00000000       0.00000000       4.00121212       0.00000000       0.00000000      -0.98189741
2
Properties=species:S:1:pos:R:3:forces:R:3 energy=-7.608612069227703 pbc="F F F"
Hf       0.00000000       0.00000000       0.00000000       0.00000000       0.00000000       0.92397732
Hf       0.00000000       0.00000000       4.06000000       0.00000000       0.00000000      -0.92397732
2
Properties=species:S:1:pos:R:3:forces:R:3 energy=-7.555706438495521 pbc="F F F"
Hf       0.00000000       0.00000000       0.00000000       0.00000000       0.00000000       0.87748373
Hf       0.00000000       0.00000000       4.11878788       0.00000000       0.00000000      -0.87748373
2
Properties=species:S:1:pos:R:3:forces:R:3 energy=-7.505306576719993 pbc="F F F"
Hf       0.00000000       0.00000000       0.00000000       0.00000000       0.00000000       0.83780569
Hf       0.00000000       0.00000000       4.17757576       0.00000000       0.00000000      -0.83780569
2
Properties=species:S:1:pos:R:3:forces:R:3 energy=-7.4571767712815324 pbc="F F F"
Hf       0.00000000       0.00000000       0.00000000       0.00000000       0.00000000       0.79933667
Hf       0.00000000       0.00000000       4.23636364       0.00000000       0.00000000      -0.79933667
2
Properties=species:S:1:pos:R:3:forces:R:3 energy=-7.411403860555758 pbc="F F F"
Hf       0.00000000       0.00000000       0.00000000       0.00000000       0.00000000       0.75682062
Hf       0.00000000       0.00000000       4.29515152       0.00000000       0.00000000      -0.75682062
2
Properties=species:S:1:pos:R:3:forces:R:3 energy=-7.368344908538981 pbc="F F F"
Hf       0.00000000       0.00000000       0.00000000       0.00000000       0.00000000       0.70664835
Hf       0.00000000       0.00000000       4.35393939       0.00000000       0.00000000      -0.70664835
2
Properties=species:S:1:pos:R:3:forces:R:3 energy=-7.328494962564272 pbc="F F F"
Hf       0.00000000       0.00000000       0.00000000       0.00000000       0.00000000       0.64764780
Hf       0.00000000       0.00000000       4.41272727       0.00000000       0.00000000      -0.64764780
2
Properties=species:S:1:pos:R:3:forces:R:3 energy=-7.292344135202531 pbc="F F F"
Hf       0.00000000       0.00000000       0.00000000       0.00000000       0.00000000       0.58120304
Hf       0.00000000       0.00000000       4.47151515       0.00000000       0.00000000      -0.58120304
2
Properties=species:S:1:pos:R:3:forces:R:3 energy=-7.260240796347596 pbc="F F F"
Hf       0.00000000       0.00000000       0.00000000       0.00000000       0.00000000       0.51060772
Hf       0.00000000       0.00000000       4.53030303       0.00000000       0.00000000      -0.51060772
2
Properties=species:S:1:pos:R:3:forces:R:3 energy=-7.232309105730449 pbc="F F F"
Hf       0.00000000       0.00000000       0.00000000       0.00000000       0.00000000       0.43999463
Hf       0.00000000       0.00000000       4.58909091       0.00000000       0.00000000      -0.43999463
2
Properties=species:S:1:pos:R:3:forces:R:3 energy=-7.208432610386507 pbc="F F F"
Hf       0.00000000       0.00000000       0.00000000       0.00000000       0.00000000       0.37322742
Hf       0.00000000       0.00000000       4.64787879       0.00000000       0.00000000      -0.37322742
2
Properties=species:S:1:pos:R:3:forces:R:3 energy=-7.188293814140275 pbc="F F F"
Hf       0.00000000       0.00000000       0.00000000       0.00000000       0.00000000       0.31318396
Hf       0.00000000       0.00000000       4.70666667       0.00000000       0.00000000      -0.31318396
2
Properties=species:S:1:pos:R:3:forces:R:3 energy=-7.171443231958099 pbc="F F F"
Hf       0.00000000       0.00000000       0.00000000       0.00000000       0.00000000       0.26158282
Hf       0.00000000       0.00000000       4.76545455       0.00000000       0.00000000      -0.26158282
2
Properties=species:S:1:pos:R:3:forces:R:3 energy=-7.157356700610159 pbc="F F F"
Hf       0.00000000       0.00000000       0.00000000       0.00000000       0.00000000       0.21921816
Hf       0.00000000       0.00000000       4.82424242       0.00000000       0.00000000      -0.21921816
2
Properties=species:S:1:pos:R:3:forces:R:3 energy=-7.145483035539725 pbc="F F F"
Hf       0.00000000       0.00000000       0.00000000       0.00000000       0.00000000       0.18635203
Hf       0.00000000       0.00000000       4.88303030       0.00000000       0.00000000      -0.18635203
2
Properties=species:S:1:pos:R:3:forces:R:3 energy=-7.135262457953916 pbc="F F F"
Hf       0.00000000       0.00000000       0.00000000       0.00000000       0.00000000       0.16286121
Hf       0.00000000       0.00000000       4.94181818       0.00000000       0.00000000      -0.16286121
2
Properties=species:S:1:pos:R:3:forces:R:3 energy=-7.126162183380346 pbc="F F F"
Hf       0.00000000       0.00000000       0.00000000       0.00000000       0.00000000       0.14807837
Hf       0.00000000       0.00000000       5.00060606       0.00000000       0.00000000      -0.14807837
2
Properties=species:S:1:pos:R:3:forces:R:3 energy=-7.117712276320839 pbc="F F F"
Hf       0.00000000       0.00000000       0.00000000       0.00000000       0.00000000       0.14036550
Hf       0.00000000       0.00000000       5.05939394       0.00000000       0.00000000      -0.14036550
2
Properties=species:S:1:pos:R:3:forces:R:3 energy=-7.1095750752393645 pbc="F F F"
Hf       0.00000000       0.00000000       0.00000000       0.00000000       0.00000000       0.13686080
Hf       0.00000000       0.00000000       5.11818182       0.00000000       0.00000000      -0.13686080
2
Properties=species:S:1:pos:R:3:forces:R:3 energy=-7.101615805643149 pbc="F F F"
Hf       0.00000000       0.00000000       0.00000000       0.00000000       0.00000000       0.13363472
Hf       0.00000000       0.00000000       5.17696970       0.00000000       0.00000000      -0.13363472
2
Properties=species:S:1:pos:R:3:forces:R:3 energy=-7.093939239523054 pbc="F F F"
Hf       0.00000000       0.00000000       0.00000000       0.00000000       0.00000000       0.12663515
Hf       0.00000000       0.00000000       5.23575758       0.00000000       0.00000000      -0.12663515
2
Properties=species:S:1:pos:R:3:forces:R:3 energy=-7.086830011513245 pbc="F F F"
Hf       0.00000000       0.00000000       0.00000000       0.00000000       0.00000000       0.11467668
Hf       0.00000000       0.00000000       5.29454545       0.00000000       0.00000000      -0.11467668
2
Properties=species:S:1:pos:R:3:forces:R:3 energy=-7.080412630829579 pbc="F F F"
Hf       0.00000000       0.00000000       0.00000000       0.00000000       0.00000000       0.10531632
Hf       0.00000000       0.00000000       5.35333333       0.00000000       0.00000000      -0.10531632
2
Properties=species:S:1:pos:R:3:forces:R:3 energy=-7.074084862509297 pbc="F F F"
Hf       0.00000000       0.00000000       0.00000000       0.00000000       0.00000000       0.11384161
Hf       0.00000000       0.00000000       5.41212121       0.00000000       0.00000000      -0.11384161
2
Properties=species:S:1:pos:R:3:forces:R:3 energy=-7.066688435113667 pbc="F F F"
Hf       0.00000000       0.00000000       0.00000000       0.00000000       0.00000000       0.13833384
Hf       0.00000000       0.00000000       5.47090909       0.00000000       0.00000000      -0.13833384
2
Properties=species:S:1:pos:R:3:forces:R:3 energy=-7.058102548147321 pbc="F F F"
Hf       0.00000000       0.00000000       0.00000000       0.00000000       0.00000000       0.14932646
Hf       0.00000000       0.00000000       5.52969697       0.00000000       0.00000000      -0.14932646
2
Properties=species:S:1:pos:R:3:forces:R:3 energy=-7.049610989152739 pbc="F F F"
Hf       0.00000000       0.00000000       0.00000000       0.00000000       0.00000000       0.13710377
Hf       0.00000000       0.00000000       5.58848485       0.00000000       0.00000000      -0.13710377
2
Properties=species:S:1:pos:R:3:forces:R:3 energy=-7.0420114648745065 pbc="F F F"
Hf       0.00000000       0.00000000       0.00000000       0.00000000       0.00000000       0.12310068
Hf       0.00000000       0.00000000       5.64727273       0.00000000       0.00000000      -0.12310068
2
Properties=species:S:1:pos:R:3:forces:R:3 energy=-7.034859722496724 pbc="F F F"
Hf       0.00000000       0.00000000       0.00000000       0.00000000       0.00000000       0.12229059
Hf       0.00000000       0.00000000       5.70606061       0.00000000       0.00000000      -0.12229059
2
Properties=species:S:1:pos:R:3:forces:R:3 energy=-7.027599164199494 pbc="F F F"
Hf       0.00000000       0.00000000       0.00000000       0.00000000       0.00000000       0.12228642
Hf       0.00000000       0.00000000       5.76484848       0.00000000       0.00000000      -0.12228642
2
Properties=species:S:1:pos:R:3:forces:R:3 energy=-7.0208988965743595 pbc="F F F"
Hf       0.00000000       0.00000000       0.00000000       0.00000000       0.00000000       0.10198297
Hf       0.00000000       0.00000000       5.82363636       0.00000000       0.00000000      -0.10198297
2
Properties=species:S:1:pos:R:3:forces:R:3 energy=-7.015959313169954 pbc="F F F"
Hf       0.00000000       0.00000000       0.00000000       0.00000000       0.00000000       0.06518899
Hf       0.00000000       0.00000000       5.88242424       0.00000000       0.00000000      -0.06518899
2
Properties=species:S:1:pos:R:3:forces:R:3 energy=-7.013151289941515 pbc="F F F"
Hf       0.00000000       0.00000000       0.00000000       0.00000000       0.00000000       0.03237977
Hf       0.00000000       0.00000000       5.94121212       0.00000000       0.00000000      -0.03237977
2
Properties=species:S:1:pos:R:3:forces:R:3 energy=-7.011751035280523 pbc="F F F"
Hf       0.00000000       0.00000000       0.00000000       0.00000000       0.00000000       0.01939954
Hf       0.00000000       0.00000000       6.00000000       0.00000000       0.00000000      -0.01939954
