2
Properties=species:S:1:pos:R:3:forces:R:3 energy=17003.222873601262 pbc="F F F"
Hg       0.00000000       0.00000000       0.00000000       0.00000000       0.00000000 -291098.75000000
Hg       0.00000000       0.00000000       0.18000000       0.00000000       0.00000000  291098.75000000
2
Properties=species:S:1:pos:R:3:forces:R:3 energy=6870.697971257512 pbc="F F F"
Hg       0.00000000       0.00000000       0.00000000       0.00000000       0.00000000  -95320.97656250
Hg       0.00000000       0.00000000       0.23878788       0.00000000       0.00000000   95320.97656250
2
Properties=species:S:1:pos:R:3:forces:R:3 energy=3296.4955786793876 pbc="F F F"
Hg       0.00000000       0.00000000       0.00000000       0.00000000       0.00000000  -36703.37500000
Hg       0.00000000       0.00000000       0.29757576       0.00000000       0.00000000   36703.37500000
2
Properties=species:S:1:pos:R:3:forces:R:3 energy=1854.9175757560356 pbc="F F F"
Hg       0.00000000       0.00000000       0.00000000       0.00000000       0.00000000  -15639.96484375
Hg       0.00000000       0.00000000       0.35636364       0.00000000       0.00000000   15639.96484375
2
Properties=species:S:1:pos:R:3:forces:R:3 energy=1219.6550025170159 pbc="F F F"
Hg       0.00000000       0.00000000       0.00000000       0.00000000       0.00000000   -7178.74414062
Hg       0.00000000       0.00000000       0.41515152       0.00000000       0.00000000    7178.74414062
2
Properties=species:S:1:pos:R:3:forces:R:3 energy=919.7440528226559 pbc="F F F"
Hg       0.00000000       0.00000000       0.00000000       0.00000000       0.00000000   -3509.51367188
Hg       0.00000000       0.00000000       0.47393939       0.00000000       0.00000000    3509.51367188
2
Properties=species:S:1:pos:R:3:forces:R:3 energy=769.1212501104558 pbc="F F F"
Hg       0.00000000       0.00000000       0.00000000       0.00000000       0.00000000   -1824.22937012
Hg       0.00000000       0.00000000       0.53272727       0.00000000       0.00000000    1824.22937012
2
Properties=species:S:1:pos:R:3:forces:R:3 energy=688.4157447837115 pbc="F F F"
Hg       0.00000000       0.00000000       0.00000000       0.00000000       0.00000000   -1017.56585693
Hg       0.00000000       0.00000000       0.59151515       0.00000000       0.00000000    1017.56585693
2
Properties=species:S:1:pos:R:3:forces:R:3 energy=641.5538674119973 pbc="F F F"
Hg       0.00000000       0.00000000       0.00000000       0.00000000       0.00000000    -623.23394775
Hg       0.00000000       0.00000000       0.65030303       0.00000000       0.00000000     623.23394775
2
Properties=species:S:1:pos:R:3:forces:R:3 energy=611.1600686915783 pbc="F F F"
Hg       0.00000000       0.00000000       0.00000000       0.00000000       0.00000000    -436.22103882
Hg       0.00000000       0.00000000       0.70909091       0.00000000       0.00000000     436.22103882
2
Properties=species:S:1:pos:R:3:forces:R:3 energy=587.4766582117738 pbc="F F F"
Hg       0.00000000       0.00000000       0.00000000       0.00000000       0.00000000    -395.57983398
Hg       0.00000000       0.00000000       0.76787879       0.00000000       0.00000000     395.57983398
2
Properties=species:S:1:pos:R:3:forces:R:3 energy=560.0452009361649 pbc="F F F"
Hg       0.00000000       0.00000000       0.00000000       0.00000000       0.00000000    -559.25482178
Hg       0.00000000       0.00000000       0.82666667       0.00000000       0.00000000     559.25482178
2
Properties=species:S:1:pos:R:3:forces:R:3 energy=522.6894273620119 pbc="F F F"
Hg       0.00000000       0.00000000       0.00000000       0.00000000       0.00000000    -704.55541992
Hg       0.00000000       0.00000000       0.88545455       0.00000000       0.00000000     704.55541992
2
Properties=species:S:1:pos:R:3:forces:R:3 energy=477.7316641779815 pbc="F F F"
Hg       0.00000000       0.00000000       0.00000000       0.00000000       0.00000000    -823.79998779
Hg       0.00000000       0.00000000       0.94424242       0.00000000       0.00000000     823.79998779
2
Properties=species:S:1:pos:R:3:forces:R:3 energy=425.85645123284854 pbc="F F F"
Hg       0.00000000       0.00000000       0.00000000       0.00000000       0.00000000    -941.02587891
Hg       0.00000000       0.00000000       1.00303030       0.00000000       0.00000000     941.02587891
2
Properties=species:S:1:pos:R:3:forces:R:3 energy=367.329718743576 pbc="F F F"
Hg       0.00000000       0.00000000       0.00000000       0.00000000       0.00000000   -1043.14270020
Hg       0.00000000       0.00000000       1.06181818       0.00000000       0.00000000    1043.14270020
2
Properties=species:S:1:pos:R:3:forces:R:3 energy=304.86869089778185 pbc="F F F"
Hg       0.00000000       0.00000000       0.00000000       0.00000000       0.00000000   -1063.11535645
Hg       0.00000000       0.00000000       1.12060606       0.00000000       0.00000000    1063.11535645
2
Properties=species:S:1:pos:R:3:forces:R:3 energy=244.00564011036104 pbc="F F F"
Hg       0.00000000       0.00000000       0.00000000       0.00000000       0.00000000   -1000.18774414
Hg       0.00000000       0.00000000       1.17939394       0.00000000       0.00000000    1000.18774414
2
Properties=species:S:1:pos:R:3:forces:R:3 energy=188.1605341277154 pbc="F F F"
Hg       0.00000000       0.00000000       0.00000000       0.00000000       0.00000000    -889.18530273
Hg       0.00000000       0.00000000       1.23818182       0.00000000       0.00000000     889.18530273
2
Properties=species:S:1:pos:R:3:forces:R:3 energy=140.57737634394587 pbc="F F F"
Hg       0.00000000       0.00000000       0.00000000       0.00000000       0.00000000    -724.01086426
Hg       0.00000000       0.00000000       1.29696970       0.00000000       0.00000000     724.01086426
2
Properties=species:S:1:pos:R:3:forces:R:3 energy=103.16774982937486 pbc="F F F"
Hg       0.00000000       0.00000000       0.00000000       0.00000000       0.00000000    -550.92999268
Hg       0.00000000       0.00000000       1.35575758       0.00000000       0.00000000     550.92999268
2
Properties=species:S:1:pos:R:3:forces:R:3 energy=75.31413154269842 pbc="F F F"
Hg       0.00000000       0.00000000       0.00000000       0.00000000       0.00000000    -402.15502930
Hg       0.00000000       0.00000000       1.41454545       0.00000000       0.00000000     402.15502930
2
Properties=species:S:1:pos:R:3:forces:R:3 energy=55.15832538376279 pbc="F F F"
Hg       0.00000000       0.00000000       0.00000000       0.00000000       0.00000000    -289.82522583
Hg       0.00000000       0.00000000       1.47333333       0.00000000       0.00000000     289.82522583
2
Properties=species:S:1:pos:R:3:forces:R:3 energy=40.60555920693789 pbc="F F F"
Hg       0.00000000       0.00000000       0.00000000       0.00000000       0.00000000    -209.41467285
Hg       0.00000000       0.00000000       1.53212121       0.00000000       0.00000000     209.41467285
2
Properties=species:S:1:pos:R:3:forces:R:3 energy=30.151623715538676 pbc="F F F"
Hg       0.00000000       0.00000000       0.00000000       0.00000000       0.00000000    -149.14047241
Hg       0.00000000       0.00000000       1.59090909       0.00000000       0.00000000     149.14047241
2
Properties=species:S:1:pos:R:3:forces:R:3 energy=22.7278145610562 pbc="F F F"
Hg       0.00000000       0.00000000       0.00000000       0.00000000       0.00000000    -106.21779633
Hg       0.00000000       0.00000000       1.64969697       0.00000000       0.00000000     106.21779633
2
Properties=species:S:1:pos:R:3:forces:R:3 energy=17.39139634709391 pbc="F F F"
Hg       0.00000000       0.00000000       0.00000000       0.00000000       0.00000000     -77.03872681
Hg       0.00000000       0.00000000       1.70848485       0.00000000       0.00000000      77.03872681
2
Properties=species:S:1:pos:R:3:forces:R:3 energy=13.521899343436958 pbc="F F F"
Hg       0.00000000       0.00000000       0.00000000       0.00000000       0.00000000     -55.61766052
Hg       0.00000000       0.00000000       1.76727273       0.00000000       0.00000000      55.61766052
2
Properties=species:S:1:pos:R:3:forces:R:3 energy=10.738200381102711 pbc="F F F"
Hg       0.00000000       0.00000000       0.00000000       0.00000000       0.00000000     -40.03934860
Hg       0.00000000       0.00000000       1.82606061       0.00000000       0.00000000      40.03934860
2
Properties=species:S:1:pos:R:3:forces:R:3 energy=8.708947609510929 pbc="F F F"
Hg       0.00000000       0.00000000       0.00000000       0.00000000       0.00000000     -29.79104042
Hg       0.00000000       0.00000000       1.88484848       0.00000000       0.00000000      29.79104042
2
Properties=species:S:1:pos:R:3:forces:R:3 energy=7.158417067481616 pbc="F F F"
Hg       0.00000000       0.00000000       0.00000000       0.00000000       0.00000000     -23.47202301
Hg       0.00000000       0.00000000       1.94363636       0.00000000       0.00000000      23.47202301
2
Properties=species:S:1:pos:R:3:forces:R:3 energy=5.903915742407137 pbc="F F F"
Hg       0.00000000       0.00000000       0.00000000       0.00000000       0.00000000     -19.48106384
Hg       0.00000000       0.00000000       2.00242424       0.00000000       0.00000000      19.48106384
2
Properties=species:S:1:pos:R:3:forces:R:3 energy=4.845607797987375 pbc="F F F"
Hg       0.00000000       0.00000000       0.00000000       0.00000000       0.00000000     -16.64562988
Hg       0.00000000       0.00000000       2.06121212       0.00000000       0.00000000      16.64562988
2
Properties=species:S:1:pos:R:3:forces:R:3 energy=3.937684468954637 pbc="F F F"
Hg       0.00000000       0.00000000       0.00000000       0.00000000       0.00000000     -14.28763771
Hg       0.00000000       0.00000000       2.12000000       0.00000000       0.00000000      14.28763771
2
Properties=species:S:1:pos:R:3:forces:R:3 energy=3.162400996233048 pbc="F F F"
Hg       0.00000000       0.00000000       0.00000000       0.00000000       0.00000000     -12.10721111
Hg       0.00000000       0.00000000       2.17878788       0.00000000       0.00000000      12.10721111
2
Properties=species:S:1:pos:R:3:forces:R:3 energy=2.511997959970715 pbc="F F F"
Hg       0.00000000       0.00000000       0.00000000       0.00000000       0.00000000     -10.04123497
Hg       0.00000000       0.00000000       2.23757576       0.00000000       0.00000000      10.04123497
2
Properties=species:S:1:pos:R:3:forces:R:3 energy=1.9786810139937745 pbc="F F F"
Hg       0.00000000       0.00000000       0.00000000       0.00000000       0.00000000      -8.13494492
Hg       0.00000000       0.00000000       2.29636364       0.00000000       0.00000000       8.13494492
2
Properties=species:S:1:pos:R:3:forces:R:3 energy=1.5511136649764843 pbc="F F F"
Hg       0.00000000       0.00000000       0.00000000       0.00000000       0.00000000      -6.45284081
Hg       0.00000000       0.00000000       2.35515152       0.00000000       0.00000000       6.45284081
2
Properties=species:S:1:pos:R:3:forces:R:3 energy=1.214764634471731 pbc="F F F"
Hg       0.00000000       0.00000000       0.00000000       0.00000000       0.00000000      -5.03565741
Hg       0.00000000       0.00000000       2.41393939       0.00000000       0.00000000       5.03565741
2
Properties=species:S:1:pos:R:3:forces:R:3 energy=0.953695901467702 pbc="F F F"
Hg       0.00000000       0.00000000       0.00000000       0.00000000       0.00000000      -3.89037967
Hg       0.00000000       0.00000000       2.47272727       0.00000000       0.00000000       3.89037967
2
Properties=species:S:1:pos:R:3:forces:R:3 energy=0.7524107979160858 pbc="F F F"
Hg       0.00000000       0.00000000       0.00000000       0.00000000       0.00000000      -2.99674106
Hg       0.00000000       0.00000000       2.53151515       0.00000000       0.00000000       2.99674106
2
Properties=species:S:1:pos:R:3:forces:R:3 energy=0.5971253241999692 pbc="F F F"
Hg       0.00000000       0.00000000       0.00000000       0.00000000       0.00000000      -2.31869292
Hg       0.00000000       0.00000000       2.59030303       0.00000000       0.00000000       2.31869292
2
Properties=species:S:1:pos:R:3:forces:R:3 energy=0.4763790445536435 pbc="F F F"
Hg       0.00000000       0.00000000       0.00000000       0.00000000       0.00000000      -1.81468737
Hg       0.00000000       0.00000000       2.64909091       0.00000000       0.00000000       1.81468737
2
Properties=species:S:1:pos:R:3:forces:R:3 energy=0.3811461747772387 pbc="F F F"
Hg       0.00000000       0.00000000       0.00000000       0.00000000       0.00000000      -1.44423366
Hg       0.00000000       0.00000000       2.70787879       0.00000000       0.00000000       1.44423366
2
Properties=species:S:1:pos:R:3:forces:R:3 energy=0.3046690384356154 pbc="F F F"
Hg       0.00000000       0.00000000       0.00000000       0.00000000       0.00000000      -1.17105818
Hg       0.00000000       0.00000000       2.76666667       0.00000000       0.00000000       1.17105818
2
Properties=species:S:1:pos:R:3:forces:R:3 energy=0.24215455508741768 pbc="F F F"
Hg       0.00000000       0.00000000       0.00000000       0.00000000       0.00000000      -0.96467626
Hg       0.00000000       0.00000000       2.82545455       0.00000000       0.00000000       0.96467626
2
Properties=species:S:1:pos:R:3:forces:R:3 energy=0.19040204946837103 pbc="F F F"
Hg       0.00000000       0.00000000       0.00000000       0.00000000       0.00000000      -0.80167103
Hg       0.00000000       0.00000000       2.88424242       0.00000000       0.00000000       0.80167103
2
Properties=species:S:1:pos:R:3:forces:R:3 energy=0.14735773227080304 pbc="F F F"
Hg       0.00000000       0.00000000       0.00000000       0.00000000       0.00000000      -0.66645962
Hg       0.00000000       0.00000000       2.94303030       0.00000000       0.00000000       0.66645962
2
Properties=species:S:1:pos:R:3:forces:R:3 energy=0.11166451342279683 pbc="F F F"
Hg       0.00000000       0.00000000       0.00000000       0.00000000       0.00000000      -0.55070269
Hg       0.00000000       0.00000000       3.00181818       0.00000000       0.00000000       0.55070269
2
Properties=species:S:1:pos:R:3:forces:R:3 energy=0.08229105740265609 pbc="F F F"
Hg       0.00000000       0.00000000       0.00000000       0.00000000       0.00000000      -0.45121369
Hg       0.00000000       0.00000000       3.06060606       0.00000000       0.00000000       0.45121369
2
Properties=species:S:1:pos:R:3:forces:R:3 energy=0.0583066777602473 pbc="F F F"
Hg       0.00000000       0.00000000       0.00000000       0.00000000       0.00000000      -0.36735335
Hg       0.00000000       0.00000000       3.11939394       0.00000000       0.00000000       0.36735335
2
Properties=species:S:1:pos:R:3:forces:R:3 energy=0.03879252413589236 pbc="F F F"
Hg       0.00000000       0.00000000       0.00000000       0.00000000       0.00000000      -0.29913345
Hg       0.00000000       0.00000000       3.17818182       0.00000000       0.00000000       0.29913345
2
Properties=species:S:1:pos:R:3:forces:R:3 energy=0.022838642781112625 pbc="F F F"
Hg       0.00000000       0.00000000       0.00000000       0.00000000       0.00000000      -0.24604817
Hg       0.00000000       0.00000000       3.23696970       0.00000000       0.00000000       0.24604817
2
Properties=species:S:1:pos:R:3:forces:R:3 energy=0.0096039189447411 pbc="F F F"
Hg       0.00000000       0.00000000       0.00000000       0.00000000       0.00000000      -0.20614193
Hg       0.00000000       0.00000000       3.29575758       0.00000000       0.00000000       0.20614193
2
Properties=species:S:1:pos:R:3:forces:R:3 energy=-0.001589991872352585 pbc="F F F"
Hg       0.00000000       0.00000000       0.00000000       0.00000000       0.00000000      -0.17596740
Hg       0.00000000       0.00000000       3.35454545       0.00000000       0.00000000       0.17596740
2
Properties=species:S:1:pos:R:3:forces:R:3 energy=-0.011202728045612995 pbc="F F F"
Hg       0.00000000       0.00000000       0.00000000       0.00000000       0.00000000      -0.15179691
Hg       0.00000000       0.00000000       3.41333333       0.00000000       0.00000000       0.15179691
2
Properties=species:S:1:pos:R:3:forces:R:3 energy=-0.019500687163157407 pbc="F F F"
Hg       0.00000000       0.00000000       0.00000000       0.00000000       0.00000000      -0.13089523
Hg       0.00000000       0.00000000       3.47212121       0.00000000       0.00000000       0.13089523
2
Properties=species:S:1:pos:R:3:forces:R:3 energy=-0.026629443739460475 pbc="F F F"
Hg       0.00000000       0.00000000       0.00000000       0.00000000       0.00000000      -0.11191033
Hg       0.00000000       0.00000000       3.53090909       0.00000000       0.00000000       0.11191033
2
Properties=species:S:1:pos:R:3:forces:R:3 energy=-0.03268958146779631 pbc="F F F"
Hg       0.00000000       0.00000000       0.00000000       0.00000000       0.00000000      -0.09452146
Hg       0.00000000       0.00000000       3.58969697       0.00000000       0.00000000       0.09452146
2
Properties=species:S:1:pos:R:3:forces:R:3 energy=-0.037777243316138694 pbc="F F F"
Hg       0.00000000       0.00000000       0.00000000       0.00000000       0.00000000      -0.07887423
Hg       0.00000000       0.00000000       3.64848485       0.00000000       0.00000000       0.07887423
2
Properties=species:S:1:pos:R:3:forces:R:3 energy=-0.04200057176260332 pbc="F F F"
Hg       0.00000000       0.00000000       0.00000000       0.00000000       0.00000000      -0.06514174
Hg       0.00000000       0.00000000       3.70727273       0.00000000       0.00000000       0.06514174
2
Properties=species:S:1:pos:R:3:forces:R:3 energy=-0.0454742784343849 pbc="F F F"
Hg       0.00000000       0.00000000       0.00000000       0.00000000       0.00000000      -0.05333289
Hg       0.00000000       0.00000000       3.76606061       0.00000000       0.00000000       0.05333289
2
Properties=species:S:1:pos:R:3:forces:R:3 energy=-0.04830562376953881 pbc="F F F"
Hg       0.00000000       0.00000000       0.00000000       0.00000000       0.00000000      -0.04326786
Hg       0.00000000       0.00000000       3.82484848       0.00000000       0.00000000       0.04326786
2
Properties=species:S:1:pos:R:3:forces:R:3 energy=-0.05058945440597014 pbc="F F F"
Hg       0.00000000       0.00000000       0.00000000       0.00000000       0.00000000      -0.03462284
Hg       0.00000000       0.00000000       3.88363636       0.00000000       0.00000000       0.03462284
2
Properties=species:S:1:pos:R:3:forces:R:3 energy=-0.05239660340166114 pbc="F F F"
Hg       0.00000000       0.00000000       0.00000000       0.00000000       0.00000000      -0.02699209
Hg       0.00000000       0.00000000       3.94242424       0.00000000       0.00000000       0.02699209
2
Properties=species:S:1:pos:R:3:forces:R:3 energy=-0.05377403812471981 pbc="F F F"
Hg       0.00000000       0.00000000       0.00000000       0.00000000       0.00000000      -0.01993735
Hg       0.00000000       0.00000000       4.00121212       0.00000000       0.00000000       0.01993735
2
Properties=species:S:1:pos:R:3:forces:R:3 energy=-0.054743716779498984 pbc="F F F"
Hg       0.00000000       0.00000000       0.00000000       0.00000000       0.00000000      -0.01304658
Hg       0.00000000       0.00000000       4.06000000       0.00000000       0.00000000       0.01304658
2
Properties=species:S:1:pos:R:3:forces:R:3 energy=-0.05530475911602313 pbc="F F F"
Hg       0.00000000       0.00000000       0.00000000       0.00000000       0.00000000      -0.00600373
Hg       0.00000000       0.00000000       4.11878788       0.00000000       0.00000000       0.00600373
2
Properties=species:S:1:pos:R:3:forces:R:3 energy=-0.05544346652294165 pbc="F F F"
Hg       0.00000000       0.00000000       0.00000000       0.00000000       0.00000000       0.00134757
Hg       0.00000000       0.00000000       4.17757576       0.00000000       0.00000000      -0.00134757
2
Properties=species:S:1:pos:R:3:forces:R:3 energy=-0.0551413941343757 pbc="F F F"
Hg       0.00000000       0.00000000       0.00000000       0.00000000       0.00000000       0.00896009
Hg       0.00000000       0.00000000       4.23636364       0.00000000       0.00000000      -0.00896009
2
Properties=species:S:1:pos:R:3:forces:R:3 energy=-0.0543897594918298 pbc="F F F"
Hg       0.00000000       0.00000000       0.00000000       0.00000000       0.00000000       0.01658232
Hg       0.00000000       0.00000000       4.29515152       0.00000000       0.00000000      -0.01658232
2
Properties=species:S:1:pos:R:3:forces:R:3 energy=-0.05319947714457106 pbc="F F F"
Hg       0.00000000       0.00000000       0.00000000       0.00000000       0.00000000       0.02380310
Hg       0.00000000       0.00000000       4.35393939       0.00000000       0.00000000      -0.02380310
2
Properties=species:S:1:pos:R:3:forces:R:3 energy=-0.05160832931146314 pbc="F F F"
Hg       0.00000000       0.00000000       0.00000000       0.00000000       0.00000000       0.03013582
Hg       0.00000000       0.00000000       4.41272727       0.00000000       0.00000000      -0.03013582
2
Properties=species:S:1:pos:R:3:forces:R:3 energy=-0.04968285384218479 pbc="F F F"
Hg       0.00000000       0.00000000       0.00000000       0.00000000       0.00000000       0.03511263
Hg       0.00000000       0.00000000       4.47151515       0.00000000       0.00000000      -0.03511263
2
Properties=species:S:1:pos:R:3:forces:R:3 energy=-0.047513622093280646 pbc="F F F"
Hg       0.00000000       0.00000000       0.00000000       0.00000000       0.00000000       0.03838288
Hg       0.00000000       0.00000000       4.53030303       0.00000000       0.00000000      -0.03838288
2
Properties=species:S:1:pos:R:3:forces:R:3 energy=-0.04520673832015252 pbc="F F F"
Hg       0.00000000       0.00000000       0.00000000       0.00000000       0.00000000       0.03978581
Hg       0.00000000       0.00000000       4.58909091       0.00000000       0.00000000      -0.03978581
2
Properties=species:S:1:pos:R:3:forces:R:3 energy=-0.042871123310132236 pbc="F F F"
Hg       0.00000000       0.00000000       0.00000000       0.00000000       0.00000000       0.03938979
Hg       0.00000000       0.00000000       4.64787879       0.00000000       0.00000000      -0.03938979
2
Properties=species:S:1:pos:R:3:forces:R:3 energy=-0.040605130653346505 pbc="F F F"
Hg       0.00000000       0.00000000       0.00000000       0.00000000       0.00000000       0.03748761
Hg       0.00000000       0.00000000       4.70666667       0.00000000       0.00000000      -0.03748761
2
Properties=species:S:1:pos:R:3:forces:R:3 energy=-0.03848411013978964 pbc="F F F"
Hg       0.00000000       0.00000000       0.00000000       0.00000000       0.00000000       0.03454068
Hg       0.00000000       0.00000000       4.76545455       0.00000000       0.00000000      -0.03454068
2
Properties=species:S:1:pos:R:3:forces:R:3 energy=-0.03655399055304906 pbc="F F F"
Hg       0.00000000       0.00000000       0.00000000       0.00000000       0.00000000       0.03108000
Hg       0.00000000       0.00000000       4.82424242       0.00000000       0.00000000      -0.03108000
2
Properties=species:S:1:pos:R:3:forces:R:3 energy=-0.034830620192175185 pbc="F F F"
Hg       0.00000000       0.00000000       0.00000000       0.00000000       0.00000000       0.02757419
Hg       0.00000000       0.00000000       4.88303030       0.00000000       0.00000000      -0.02757419
2
Properties=species:S:1:pos:R:3:forces:R:3 energy=-0.03330723195970419 pbc="F F F"
Hg       0.00000000       0.00000000       0.00000000       0.00000000       0.00000000       0.02429511
Hg       0.00000000       0.00000000       4.94181818       0.00000000       0.00000000      -0.02429511
2
Properties=species:S:1:pos:R:3:forces:R:3 energy=-0.0319695744776614 pbc="F F F"
Hg       0.00000000       0.00000000       0.00000000       0.00000000       0.00000000       0.02123381
Hg       0.00000000       0.00000000       5.00060606       0.00000000       0.00000000      -0.02123381
2
Properties=species:S:1:pos:R:3:forces:R:3 energy=-0.030811757154124944 pbc="F F F"
Hg       0.00000000       0.00000000       0.00000000       0.00000000       0.00000000       0.01811069
Hg       0.00000000       0.00000000       5.05939394       0.00000000       0.00000000      -0.01811069
2
Properties=species:S:1:pos:R:3:forces:R:3 energy=-0.02984957283452204 pbc="F F F"
Hg       0.00000000       0.00000000       0.00000000       0.00000000       0.00000000       0.01450906
Hg       0.00000000       0.00000000       5.11818182       0.00000000       0.00000000      -0.01450906
2
Properties=species:S:1:pos:R:3:forces:R:3 energy=-0.029122208565959148 pbc="F F F"
Hg       0.00000000       0.00000000       0.00000000       0.00000000       0.00000000       0.01008520
Hg       0.00000000       0.00000000       5.17696970       0.00000000       0.00000000      -0.01008520
2
Properties=species:S:1:pos:R:3:forces:R:3 energy=-0.028681431289607123 pbc="F F F"
Hg       0.00000000       0.00000000       0.00000000       0.00000000       0.00000000       0.00478200
Hg       0.00000000       0.00000000       5.23575758       0.00000000       0.00000000      -0.00478200
2
Properties=species:S:1:pos:R:3:forces:R:3 energy=-0.028568985097536134 pbc="F F F"
Hg       0.00000000       0.00000000       0.00000000       0.00000000       0.00000000      -0.00095183
Hg       0.00000000       0.00000000       5.29454545       0.00000000       0.00000000       0.00095183
2
Properties=species:S:1:pos:R:3:forces:R:3 energy=-0.028777465897896447 pbc="F F F"
Hg       0.00000000       0.00000000       0.00000000       0.00000000       0.00000000      -0.00583975
Hg       0.00000000       0.00000000       5.35333333       0.00000000       0.00000000       0.00583975
2
Properties=species:S:1:pos:R:3:forces:R:3 energy=-0.02919848199840313 pbc="F F F"
Hg       0.00000000       0.00000000       0.00000000       0.00000000       0.00000000      -0.00785442
Hg       0.00000000       0.00000000       5.41212121       0.00000000       0.00000000       0.00785442
2
Properties=species:S:1:pos:R:3:forces:R:3 energy=-0.029627100114194165 pbc="F F F"
Hg       0.00000000       0.00000000       0.00000000       0.00000000       0.00000000      -0.00623886
Hg       0.00000000       0.00000000       5.47090909       0.00000000       0.00000000       0.00623886
2
Properties=species:S:1:pos:R:3:forces:R:3 energy=-0.029904540909315845 pbc="F F F"
Hg       0.00000000       0.00000000       0.00000000       0.00000000       0.00000000      -0.00315950
Hg       0.00000000       0.00000000       5.52969697       0.00000000       0.00000000       0.00315950
2
Properties=species:S:1:pos:R:3:forces:R:3 energy=-0.029997669679093383 pbc="F F F"
Hg       0.00000000       0.00000000       0.00000000       0.00000000       0.00000000       0.00003954
Hg       0.00000000       0.00000000       5.58848485       0.00000000       0.00000000      -0.00003954
2
Properties=species:S:1:pos:R:3:forces:R:3 energy=-0.02989062481050726 pbc="F F F"
Hg       0.00000000       0.00000000       0.00000000       0.00000000       0.00000000       0.00365122
Hg       0.00000000       0.00000000       5.64727273       0.00000000       0.00000000      -0.00365122
2
Properties=species:S:1:pos:R:3:forces:R:3 energy=-0.029571168712275008 pbc="F F F"
Hg       0.00000000       0.00000000       0.00000000       0.00000000       0.00000000       0.00706937
Hg       0.00000000       0.00000000       5.70606061       0.00000000       0.00000000      -0.00706937
2
Properties=species:S:1:pos:R:3:forces:R:3 energy=-0.02909610951368159 pbc="F F F"
Hg       0.00000000       0.00000000       0.00000000       0.00000000       0.00000000       0.00864563
Hg       0.00000000       0.00000000       5.76484848       0.00000000       0.00000000      -0.00864563
2
Properties=species:S:1:pos:R:3:forces:R:3 energy=-0.028603111818736586 pbc="F F F"
Hg       0.00000000       0.00000000       0.00000000       0.00000000       0.00000000       0.00787888
Hg       0.00000000       0.00000000       5.82363636       0.00000000       0.00000000      -0.00787888
2
Properties=species:S:1:pos:R:3:forces:R:3 energy=-0.02817370139857483 pbc="F F F"
Hg       0.00000000       0.00000000       0.00000000       0.00000000       0.00000000       0.00684392
Hg       0.00000000       0.00000000       5.88242424       0.00000000       0.00000000      -0.00684392
2
Properties=species:S:1:pos:R:3:forces:R:3 energy=-0.027784583389824084 pbc="F F F"
Hg       0.00000000       0.00000000       0.00000000       0.00000000       0.00000000       0.00646500
Hg       0.00000000       0.00000000       5.94121212       0.00000000       0.00000000      -0.00646500
2
Properties=species:S:1:pos:R:3:forces:R:3 energy=-0.02741228360195635 pbc="F F F"
Hg       0.00000000       0.00000000       0.00000000       0.00000000       0.00000000       0.00617705
Hg       0.00000000       0.00000000       6.00000000       0.00000000       0.00000000      -0.00617705
