2
Properties=species:S:1:pos:R:3:forces:R:3 energy=8512.907272657229 pbc="F F F"
In       0.00000000       0.00000000       0.00000000       0.00000000       0.00000000 -140079.34375000
In       0.00000000       0.00000000       0.18000000       0.00000000       0.00000000  140079.34375000
2
Properties=species:S:1:pos:R:3:forces:R:3 energy=3533.978317579103 pbc="F F F"
In       0.00000000       0.00000000       0.00000000       0.00000000       0.00000000  -48266.48828125
In       0.00000000       0.00000000       0.23878788       0.00000000       0.00000000   48266.48828125
2
Properties=species:S:1:pos:R:3:forces:R:3 energy=1683.365524610353 pbc="F F F"
In       0.00000000       0.00000000       0.00000000       0.00000000       0.00000000  -19599.44531250
In       0.00000000       0.00000000       0.29757576       0.00000000       0.00000000   19599.44531250
2
Properties=species:S:1:pos:R:3:forces:R:3 energy=895.3873141611342 pbc="F F F"
In       0.00000000       0.00000000       0.00000000       0.00000000       0.00000000   -8812.75390625
In       0.00000000       0.00000000       0.35636364       0.00000000       0.00000000    8812.75390625
2
Properties=species:S:1:pos:R:3:forces:R:3 energy=529.4011081127824 pbc="F F F"
In       0.00000000       0.00000000       0.00000000       0.00000000       0.00000000   -4250.03808594
In       0.00000000       0.00000000       0.41515152       0.00000000       0.00000000    4250.03808594
2
Properties=species:S:1:pos:R:3:forces:R:3 energy=348.49089083396177 pbc="F F F"
In       0.00000000       0.00000000       0.00000000       0.00000000       0.00000000   -2162.55883789
In       0.00000000       0.00000000       0.47393939       0.00000000       0.00000000    2162.55883789
2
Properties=species:S:1:pos:R:3:forces:R:3 energy=254.49343906757431 pbc="F F F"
In       0.00000000       0.00000000       0.00000000       0.00000000       0.00000000   -1153.73376465
In       0.00000000       0.00000000       0.53272727       0.00000000       0.00000000    1153.73376465
2
Properties=species:S:1:pos:R:3:forces:R:3 energy=202.90197791127628 pbc="F F F"
In       0.00000000       0.00000000       0.00000000       0.00000000       0.00000000    -656.73480225
In       0.00000000       0.00000000       0.59151515       0.00000000       0.00000000     656.73480225
2
Properties=species:S:1:pos:R:3:forces:R:3 energy=172.9511570327742 pbc="F F F"
In       0.00000000       0.00000000       0.00000000       0.00000000       0.00000000    -389.57250977
In       0.00000000       0.00000000       0.65030303       0.00000000       0.00000000     389.57250977
2
Properties=species:S:1:pos:R:3:forces:R:3 energy=154.71438646941567 pbc="F F F"
In       0.00000000       0.00000000       0.00000000       0.00000000       0.00000000    -244.70629883
In       0.00000000       0.00000000       0.70909091       0.00000000       0.00000000     244.70629883
2
Properties=species:S:1:pos:R:3:forces:R:3 energy=142.74603329930162 pbc="F F F"
In       0.00000000       0.00000000       0.00000000       0.00000000       0.00000000    -191.26036072
In       0.00000000       0.00000000       0.76787879       0.00000000       0.00000000     191.26036072
2
Properties=species:S:1:pos:R:3:forces:R:3 energy=130.34927441815395 pbc="F F F"
In       0.00000000       0.00000000       0.00000000       0.00000000       0.00000000    -211.22500610
In       0.00000000       0.00000000       0.82666667       0.00000000       0.00000000     211.22500610
2
Properties=species:S:1:pos:R:3:forces:R:3 energy=117.52249241017117 pbc="F F F"
In       0.00000000       0.00000000       0.00000000       0.00000000       0.00000000    -228.44250488
In       0.00000000       0.00000000       0.88545455       0.00000000       0.00000000     228.44250488
2
Properties=species:S:1:pos:R:3:forces:R:3 energy=103.78840762810646 pbc="F F F"
In       0.00000000       0.00000000       0.00000000       0.00000000       0.00000000    -234.12606812
In       0.00000000       0.00000000       0.94424242       0.00000000       0.00000000     234.12606812
2
Properties=species:S:1:pos:R:3:forces:R:3 energy=90.33451247741132 pbc="F F F"
In       0.00000000       0.00000000       0.00000000       0.00000000       0.00000000    -222.50772095
In       0.00000000       0.00000000       1.00303030       0.00000000       0.00000000     222.50772095
2
Properties=species:S:1:pos:R:3:forces:R:3 energy=77.83307870877616 pbc="F F F"
In       0.00000000       0.00000000       0.00000000       0.00000000       0.00000000    -199.78921509
In       0.00000000       0.00000000       1.06181818       0.00000000       0.00000000     199.78921509
2
Properties=species:S:1:pos:R:3:forces:R:3 energy=67.05483543782749 pbc="F F F"
In       0.00000000       0.00000000       0.00000000       0.00000000       0.00000000    -166.97712708
In       0.00000000       0.00000000       1.12060606       0.00000000       0.00000000     166.97712708
2
Properties=species:S:1:pos:R:3:forces:R:3 energy=58.14539732660265 pbc="F F F"
In       0.00000000       0.00000000       0.00000000       0.00000000       0.00000000    -136.22674561
In       0.00000000       0.00000000       1.17939394       0.00000000       0.00000000     136.22674561
2
Properties=species:S:1:pos:R:3:forces:R:3 energy=50.92315051633893 pbc="F F F"
In       0.00000000       0.00000000       0.00000000       0.00000000       0.00000000    -112.68217468
In       0.00000000       0.00000000       1.23818182       0.00000000       0.00000000     112.68217468
2
Properties=species:S:1:pos:R:3:forces:R:3 energy=44.347060365570805 pbc="F F F"
In       0.00000000       0.00000000       0.00000000       0.00000000       0.00000000    -115.40673828
In       0.00000000       0.00000000       1.29696970       0.00000000       0.00000000     115.40673828
2
Properties=species:S:1:pos:R:3:forces:R:3 energy=37.19039660364631 pbc="F F F"
In       0.00000000       0.00000000       0.00000000       0.00000000       0.00000000    -124.22607422
In       0.00000000       0.00000000       1.35575758       0.00000000       0.00000000     124.22607422
2
Properties=species:S:1:pos:R:3:forces:R:3 energy=30.546918862343286 pbc="F F F"
In       0.00000000       0.00000000       0.00000000       0.00000000       0.00000000     -99.20236969
In       0.00000000       0.00000000       1.41454545       0.00000000       0.00000000      99.20236969
2
Properties=species:S:1:pos:R:3:forces:R:3 energy=25.040898639022124 pbc="F F F"
In       0.00000000       0.00000000       0.00000000       0.00000000       0.00000000     -92.00886536
In       0.00000000       0.00000000       1.47333333       0.00000000       0.00000000      92.00886536
2
Properties=species:S:1:pos:R:3:forces:R:3 energy=19.93205589318941 pbc="F F F"
In       0.00000000       0.00000000       0.00000000       0.00000000       0.00000000     -78.39795685
In       0.00000000       0.00000000       1.53212121       0.00000000       0.00000000      78.39795685
2
Properties=species:S:1:pos:R:3:forces:R:3 energy=15.832790822328784 pbc="F F F"
In       0.00000000       0.00000000       0.00000000       0.00000000       0.00000000     -62.53431702
In       0.00000000       0.00000000       1.59090909       0.00000000       0.00000000      62.53431702
2
Properties=species:S:1:pos:R:3:forces:R:3 energy=12.541340422251713 pbc="F F F"
In       0.00000000       0.00000000       0.00000000       0.00000000       0.00000000     -49.19879532
In       0.00000000       0.00000000       1.64969697       0.00000000       0.00000000      49.19879532
2
Properties=species:S:1:pos:R:3:forces:R:3 energy=10.009684513837877 pbc="F F F"
In       0.00000000       0.00000000       0.00000000       0.00000000       0.00000000     -37.75991821
In       0.00000000       0.00000000       1.70848485       0.00000000       0.00000000      37.75991821
2
Properties=species:S:1:pos:R:3:forces:R:3 energy=8.005366132542543 pbc="F F F"
In       0.00000000       0.00000000       0.00000000       0.00000000       0.00000000     -31.03887177
In       0.00000000       0.00000000       1.76727273       0.00000000       0.00000000      31.03887177
2
Properties=species:S:1:pos:R:3:forces:R:3 energy=6.316262576602326 pbc="F F F"
In       0.00000000       0.00000000       0.00000000       0.00000000       0.00000000     -26.62320328
In       0.00000000       0.00000000       1.82606061       0.00000000       0.00000000      26.62320328
2
Properties=species:S:1:pos:R:3:forces:R:3 energy=4.862212057438796 pbc="F F F"
In       0.00000000       0.00000000       0.00000000       0.00000000       0.00000000     -22.90787125
In       0.00000000       0.00000000       1.88484848       0.00000000       0.00000000      22.90787125
2
Properties=species:S:1:pos:R:3:forces:R:3 energy=3.6166979521239164 pbc="F F F"
In       0.00000000       0.00000000       0.00000000       0.00000000       0.00000000     -19.51706123
In       0.00000000       0.00000000       1.94363636       0.00000000       0.00000000      19.51706123
2
Properties=species:S:1:pos:R:3:forces:R:3 energy=2.5607683986512066 pbc="F F F"
In       0.00000000       0.00000000       0.00000000       0.00000000       0.00000000     -16.46842194
In       0.00000000       0.00000000       2.00242424       0.00000000       0.00000000      16.46842194
2
Properties=species:S:1:pos:R:3:forces:R:3 energy=1.6728988551617667 pbc="F F F"
In       0.00000000       0.00000000       0.00000000       0.00000000       0.00000000     -13.80159283
In       0.00000000       0.00000000       2.06121212       0.00000000       0.00000000      13.80159283
2
Properties=species:S:1:pos:R:3:forces:R:3 energy=0.9307269452315118 pbc="F F F"
In       0.00000000       0.00000000       0.00000000       0.00000000       0.00000000     -11.50663662
In       0.00000000       0.00000000       2.12000000       0.00000000       0.00000000      11.50663662
2
Properties=species:S:1:pos:R:3:forces:R:3 energy=0.31351880924898756 pbc="F F F"
In       0.00000000       0.00000000       0.00000000       0.00000000       0.00000000      -9.54198933
In       0.00000000       0.00000000       2.17878788       0.00000000       0.00000000       9.54198933
2
Properties=species:S:1:pos:R:3:forces:R:3 energy=-0.19668026182533538 pbc="F F F"
In       0.00000000       0.00000000       0.00000000       0.00000000       0.00000000      -7.85826492
In       0.00000000       0.00000000       2.23757576       0.00000000       0.00000000       7.85826492
2
Properties=species:S:1:pos:R:3:forces:R:3 energy=-0.6150956023191199 pbc="F F F"
In       0.00000000       0.00000000       0.00000000       0.00000000       0.00000000      -6.41351843
In       0.00000000       0.00000000       2.29636364       0.00000000       0.00000000       6.41351843
2
Properties=species:S:1:pos:R:3:forces:R:3 energy=-0.9548547007745667 pbc="F F F"
In       0.00000000       0.00000000       0.00000000       0.00000000       0.00000000      -5.17835140
In       0.00000000       0.00000000       2.35515152       0.00000000       0.00000000       5.17835140
2
Properties=species:S:1:pos:R:3:forces:R:3 energy=-1.2276442251155968 pbc="F F F"
In       0.00000000       0.00000000       0.00000000       0.00000000       0.00000000      -4.13214111
In       0.00000000       0.00000000       2.41393939       0.00000000       0.00000000       4.13214111
2
Properties=species:S:1:pos:R:3:forces:R:3 energy=-1.444045578021005 pbc="F F F"
In       0.00000000       0.00000000       0.00000000       0.00000000       0.00000000      -3.25684929
In       0.00000000       0.00000000       2.47272727       0.00000000       0.00000000       3.25684929
2
Properties=species:S:1:pos:R:3:forces:R:3 energy=-1.613547533339157 pbc="F F F"
In       0.00000000       0.00000000       0.00000000       0.00000000       0.00000000      -2.53333330
In       0.00000000       0.00000000       2.53151515       0.00000000       0.00000000       2.53333330
2
Properties=species:S:1:pos:R:3:forces:R:3 energy=-1.7444653341620695 pbc="F F F"
In       0.00000000       0.00000000       0.00000000       0.00000000       0.00000000      -1.94049215
In       0.00000000       0.00000000       2.59030303       0.00000000       0.00000000       1.94049215
2
Properties=species:S:1:pos:R:3:forces:R:3 energy=-1.8438251358422804 pbc="F F F"
In       0.00000000       0.00000000       0.00000000       0.00000000       0.00000000      -1.45597696
In       0.00000000       0.00000000       2.64909091       0.00000000       0.00000000       1.45597696
2
Properties=species:S:1:pos:R:3:forces:R:3 energy=-1.9173383601564824 pbc="F F F"
In       0.00000000       0.00000000       0.00000000       0.00000000       0.00000000      -1.05753195
In       0.00000000       0.00000000       2.70787879       0.00000000       0.00000000       1.05753195
2
Properties=species:S:1:pos:R:3:forces:R:3 energy=-1.969452054310739 pbc="F F F"
In       0.00000000       0.00000000       0.00000000       0.00000000       0.00000000      -0.72486818
In       0.00000000       0.00000000       2.76666667       0.00000000       0.00000000       0.72486818
2
Properties=species:S:1:pos:R:3:forces:R:3 energy=-2.003530668931905 pbc="F F F"
In       0.00000000       0.00000000       0.00000000       0.00000000       0.00000000      -0.44166136
In       0.00000000       0.00000000       2.82545455       0.00000000       0.00000000       0.44166136
2
Properties=species:S:1:pos:R:3:forces:R:3 energy=-2.0221287210550147 pbc="F F F"
In       0.00000000       0.00000000       0.00000000       0.00000000       0.00000000      -0.19680135
In       0.00000000       0.00000000       2.88424242       0.00000000       0.00000000       0.19680135
2
Properties=species:S:1:pos:R:3:forces:R:3 energy=-2.027298583837356 pbc="F F F"
In       0.00000000       0.00000000       0.00000000       0.00000000       0.00000000       0.01585487
In       0.00000000       0.00000000       2.94303030       0.00000000       0.00000000      -0.01585487
2
Properties=species:S:1:pos:R:3:forces:R:3 energy=-2.0208398137075734 pbc="F F F"
In       0.00000000       0.00000000       0.00000000       0.00000000       0.00000000       0.19911824
In       0.00000000       0.00000000       3.00181818       0.00000000       0.00000000      -0.19911824
2
Properties=species:S:1:pos:R:3:forces:R:3 energy=-2.004433553936224 pbc="F F F"
In       0.00000000       0.00000000       0.00000000       0.00000000       0.00000000       0.35449961
In       0.00000000       0.00000000       3.06060606       0.00000000       0.00000000      -0.35449961
2
Properties=species:S:1:pos:R:3:forces:R:3 energy=-1.9796748717280985 pbc="F F F"
In       0.00000000       0.00000000       0.00000000       0.00000000       0.00000000       0.48360017
In       0.00000000       0.00000000       3.11939394       0.00000000       0.00000000      -0.48360017
2
Properties=species:S:1:pos:R:3:forces:R:3 energy=-1.9480473803556073 pbc="F F F"
In       0.00000000       0.00000000       0.00000000       0.00000000       0.00000000       0.58853710
In       0.00000000       0.00000000       3.17818182       0.00000000       0.00000000      -0.58853710
2
Properties=species:S:1:pos:R:3:forces:R:3 energy=-1.9109019362303976 pbc="F F F"
In       0.00000000       0.00000000       0.00000000       0.00000000       0.00000000       0.67178172
In       0.00000000       0.00000000       3.23696970       0.00000000       0.00000000      -0.67178172
2
Properties=species:S:1:pos:R:3:forces:R:3 energy=-1.8694349906006842 pbc="F F F"
In       0.00000000       0.00000000       0.00000000       0.00000000       0.00000000       0.73605227
In       0.00000000       0.00000000       3.29575758       0.00000000       0.00000000      -0.73605227
2
Properties=species:S:1:pos:R:3:forces:R:3 energy=-1.8246707049374977 pbc="F F F"
In       0.00000000       0.00000000       0.00000000       0.00000000       0.00000000       0.78448009
In       0.00000000       0.00000000       3.35454545       0.00000000       0.00000000      -0.78448009
2
Properties=species:S:1:pos:R:3:forces:R:3 energy=-1.7774422054398904 pbc="F F F"
In       0.00000000       0.00000000       0.00000000       0.00000000       0.00000000       0.82046491
In       0.00000000       0.00000000       3.41333333       0.00000000       0.00000000      -0.82046491
2
Properties=species:S:1:pos:R:3:forces:R:3 energy=-1.7283940612636237 pbc="F F F"
In       0.00000000       0.00000000       0.00000000       0.00000000       0.00000000       0.84669822
In       0.00000000       0.00000000       3.47212121       0.00000000       0.00000000      -0.84669822
2
Properties=species:S:1:pos:R:3:forces:R:3 energy=-1.6780544069510759 pbc="F F F"
In       0.00000000       0.00000000       0.00000000       0.00000000       0.00000000       0.86460179
In       0.00000000       0.00000000       3.53090909       0.00000000       0.00000000      -0.86460179
2
Properties=species:S:1:pos:R:3:forces:R:3 energy=-1.6268818296247094 pbc="F F F"
In       0.00000000       0.00000000       0.00000000       0.00000000       0.00000000       0.87518293
In       0.00000000       0.00000000       3.58969697       0.00000000       0.00000000      -0.87518293
2
Properties=species:S:1:pos:R:3:forces:R:3 energy=-1.5752697601952992 pbc="F F F"
In       0.00000000       0.00000000       0.00000000       0.00000000       0.00000000       0.87984580
In       0.00000000       0.00000000       3.64848485       0.00000000       0.00000000      -0.87984580
2
Properties=species:S:1:pos:R:3:forces:R:3 energy=-1.523517078435485 pbc="F F F"
In       0.00000000       0.00000000       0.00000000       0.00000000       0.00000000       0.88024414
In       0.00000000       0.00000000       3.70727273       0.00000000       0.00000000      -0.88024414
2
Properties=species:S:1:pos:R:3:forces:R:3 energy=-1.4718295016339964 pbc="F F F"
In       0.00000000       0.00000000       0.00000000       0.00000000       0.00000000       0.87777114
In       0.00000000       0.00000000       3.76606061       0.00000000       0.00000000      -0.87777114
2
Properties=species:S:1:pos:R:3:forces:R:3 energy=-1.4203516123276867 pbc="F F F"
In       0.00000000       0.00000000       0.00000000       0.00000000       0.00000000       0.87326479
In       0.00000000       0.00000000       3.82484848       0.00000000       0.00000000      -0.87326479
2
Properties=species:S:1:pos:R:3:forces:R:3 energy=-1.3691903603705562 pbc="F F F"
In       0.00000000       0.00000000       0.00000000       0.00000000       0.00000000       0.86695904
In       0.00000000       0.00000000       3.88363636       0.00000000       0.00000000      -0.86695904
2
Properties=species:S:1:pos:R:3:forces:R:3 energy=-1.3184575956599127 pbc="F F F"
In       0.00000000       0.00000000       0.00000000       0.00000000       0.00000000       0.85862279
In       0.00000000       0.00000000       3.94242424       0.00000000       0.00000000      -0.85862279
2
Properties=species:S:1:pos:R:3:forces:R:3 energy=-1.268287484212316 pbc="F F F"
In       0.00000000       0.00000000       0.00000000       0.00000000       0.00000000       0.84775323
In       0.00000000       0.00000000       4.00121212       0.00000000       0.00000000      -0.84775323
2
Properties=species:S:1:pos:R:3:forces:R:3 energy=-1.2188434426534422 pbc="F F F"
In       0.00000000       0.00000000       0.00000000       0.00000000       0.00000000       0.83378017
In       0.00000000       0.00000000       4.06000000       0.00000000       0.00000000      -0.83378017
2
Properties=species:S:1:pos:R:3:forces:R:3 energy=-1.1703252601053362 pbc="F F F"
In       0.00000000       0.00000000       0.00000000       0.00000000       0.00000000       0.81621575
In       0.00000000       0.00000000       4.11878788       0.00000000       0.00000000      -0.81621575
2
Properties=species:S:1:pos:R:3:forces:R:3 energy=-1.1229527343396393 pbc="F F F"
In       0.00000000       0.00000000       0.00000000       0.00000000       0.00000000       0.79474556
In       0.00000000       0.00000000       4.17757576       0.00000000       0.00000000      -0.79474556
2
Properties=species:S:1:pos:R:3:forces:R:3 energy=-1.076959878375766 pbc="F F F"
In       0.00000000       0.00000000       0.00000000       0.00000000       0.00000000       0.76930428
In       0.00000000       0.00000000       4.23636364       0.00000000       0.00000000      -0.76930428
2
Properties=species:S:1:pos:R:3:forces:R:3 energy=-1.0325738132690918 pbc="F F F"
In       0.00000000       0.00000000       0.00000000       0.00000000       0.00000000       0.74012572
In       0.00000000       0.00000000       4.29515152       0.00000000       0.00000000      -0.74012572
2
Properties=species:S:1:pos:R:3:forces:R:3 energy=-0.9900012015946523 pbc="F F F"
In       0.00000000       0.00000000       0.00000000       0.00000000       0.00000000       0.70781511
In       0.00000000       0.00000000       4.35393939       0.00000000       0.00000000      -0.70781511
2
Properties=species:S:1:pos:R:3:forces:R:3 energy=-0.9493956759686476 pbc="F F F"
In       0.00000000       0.00000000       0.00000000       0.00000000       0.00000000       0.67333823
In       0.00000000       0.00000000       4.41272727       0.00000000       0.00000000      -0.67333823
2
Properties=species:S:1:pos:R:3:forces:R:3 energy=-0.9108503858839992 pbc="F F F"
In       0.00000000       0.00000000       0.00000000       0.00000000       0.00000000       0.63793445
In       0.00000000       0.00000000       4.47151515       0.00000000       0.00000000      -0.63793445
2
Properties=species:S:1:pos:R:3:forces:R:3 energy=-0.8743820204977288 pbc="F F F"
In       0.00000000       0.00000000       0.00000000       0.00000000       0.00000000       0.60288912
In       0.00000000       0.00000000       4.53030303       0.00000000       0.00000000      -0.60288912
2
Properties=species:S:1:pos:R:3:forces:R:3 energy=-0.8399376568294626 pbc="F F F"
In       0.00000000       0.00000000       0.00000000       0.00000000       0.00000000       0.56925201
In       0.00000000       0.00000000       4.58909091       0.00000000       0.00000000      -0.56925201
2
Properties=species:S:1:pos:R:3:forces:R:3 energy=-0.8074138554225148 pbc="F F F"
In       0.00000000       0.00000000       0.00000000       0.00000000       0.00000000       0.53758693
In       0.00000000       0.00000000       4.64787879       0.00000000       0.00000000      -0.53758693
2
Properties=species:S:1:pos:R:3:forces:R:3 energy=-0.7766909571892578 pbc="F F F"
In       0.00000000       0.00000000       0.00000000       0.00000000       0.00000000       0.50789475
In       0.00000000       0.00000000       4.70666667       0.00000000       0.00000000      -0.50789475
2
Properties=species:S:1:pos:R:3:forces:R:3 energy=-0.7476667125180897 pbc="F F F"
In       0.00000000       0.00000000       0.00000000       0.00000000       0.00000000       0.47978044
In       0.00000000       0.00000000       4.76545455       0.00000000       0.00000000      -0.47978044
2
Properties=species:S:1:pos:R:3:forces:R:3 energy=-0.7202573541570383 pbc="F F F"
In       0.00000000       0.00000000       0.00000000       0.00000000       0.00000000       0.45280930
In       0.00000000       0.00000000       4.82424242       0.00000000       0.00000000      -0.45280930
2
Properties=species:S:1:pos:R:3:forces:R:3 energy=-0.6944066686231047 pbc="F F F"
In       0.00000000       0.00000000       0.00000000       0.00000000       0.00000000       0.42696160
In       0.00000000       0.00000000       4.88303030       0.00000000       0.00000000      -0.42696160
2
Properties=species:S:1:pos:R:3:forces:R:3 energy=-0.6700244487788354 pbc="F F F"
In       0.00000000       0.00000000       0.00000000       0.00000000       0.00000000       0.40285552
In       0.00000000       0.00000000       4.94181818       0.00000000       0.00000000      -0.40285552
2
Properties=species:S:1:pos:R:3:forces:R:3 energy=-0.6469820013092086 pbc="F F F"
In       0.00000000       0.00000000       0.00000000       0.00000000       0.00000000       0.38168317
In       0.00000000       0.00000000       5.00060606       0.00000000       0.00000000      -0.38168317
2
Properties=species:S:1:pos:R:3:forces:R:3 energy=-0.6250664325429378 pbc="F F F"
In       0.00000000       0.00000000       0.00000000       0.00000000       0.00000000       0.36457679
In       0.00000000       0.00000000       5.05939394       0.00000000       0.00000000      -0.36457679
2
Properties=species:S:1:pos:R:3:forces:R:3 energy=-0.6040347778054423 pbc="F F F"
In       0.00000000       0.00000000       0.00000000       0.00000000       0.00000000       0.35155356
In       0.00000000       0.00000000       5.11818182       0.00000000       0.00000000      -0.35155356
2
Properties=species:S:1:pos:R:3:forces:R:3 energy=-0.5836975291169568 pbc="F F F"
In       0.00000000       0.00000000       0.00000000       0.00000000       0.00000000       0.34025711
In       0.00000000       0.00000000       5.17696970       0.00000000       0.00000000      -0.34025711
2
Properties=species:S:1:pos:R:3:forces:R:3 energy=-0.564098658642774 pbc="F F F"
In       0.00000000       0.00000000       0.00000000       0.00000000       0.00000000       0.32537830
In       0.00000000       0.00000000       5.23575758       0.00000000       0.00000000      -0.32537830
2
Properties=species:S:1:pos:R:3:forces:R:3 energy=-0.5456328846201679 pbc="F F F"
In       0.00000000       0.00000000       0.00000000       0.00000000       0.00000000       0.30097327
In       0.00000000       0.00000000       5.29454545       0.00000000       0.00000000      -0.30097327
2
Properties=species:S:1:pos:R:3:forces:R:3 energy=-0.5288664772054843 pbc="F F F"
In       0.00000000       0.00000000       0.00000000       0.00000000       0.00000000       0.26931754
In       0.00000000       0.00000000       5.35333333       0.00000000       0.00000000      -0.26931754
2
Properties=species:S:1:pos:R:3:forces:R:3 energy=-0.5137274232528255 pbc="F F F"
In       0.00000000       0.00000000       0.00000000       0.00000000       0.00000000       0.24998330
In       0.00000000       0.00000000       5.41212121       0.00000000       0.00000000      -0.24998330
2
Properties=species:S:1:pos:R:3:forces:R:3 energy=-0.4989249886556599 pbc="F F F"
In       0.00000000       0.00000000       0.00000000       0.00000000       0.00000000       0.25658172
In       0.00000000       0.00000000       5.47090909       0.00000000       0.00000000      -0.25658172
2
Properties=species:S:1:pos:R:3:forces:R:3 energy=-0.4836739145775284 pbc="F F F"
In       0.00000000       0.00000000       0.00000000       0.00000000       0.00000000       0.25745627
In       0.00000000       0.00000000       5.52969697       0.00000000       0.00000000      -0.25745627
2
Properties=species:S:1:pos:R:3:forces:R:3 energy=-0.46932265941614104 pbc="F F F"
In       0.00000000       0.00000000       0.00000000       0.00000000       0.00000000       0.22656929
In       0.00000000       0.00000000       5.58848485       0.00000000       0.00000000      -0.22656929
2
Properties=species:S:1:pos:R:3:forces:R:3 energy=-0.45712149842001687 pbc="F F F"
In       0.00000000       0.00000000       0.00000000       0.00000000       0.00000000       0.19200192
In       0.00000000       0.00000000       5.64727273       0.00000000       0.00000000      -0.19200192
2
Properties=species:S:1:pos:R:3:forces:R:3 energy=-0.446028580084481 pbc="F F F"
In       0.00000000       0.00000000       0.00000000       0.00000000       0.00000000       0.19229099
In       0.00000000       0.00000000       5.70606061       0.00000000       0.00000000      -0.19229099
2
Properties=species:S:1:pos:R:3:forces:R:3 energy=-0.43405368235785613 pbc="F F F"
In       0.00000000       0.00000000       0.00000000       0.00000000       0.00000000       0.21224257
In       0.00000000       0.00000000       5.76484848       0.00000000       0.00000000      -0.21224257
2
Properties=species:S:1:pos:R:3:forces:R:3 energy=-0.4219812189564902 pbc="F F F"
In       0.00000000       0.00000000       0.00000000       0.00000000       0.00000000       0.18796541
In       0.00000000       0.00000000       5.82363636       0.00000000       0.00000000      -0.18796541
2
Properties=species:S:1:pos:R:3:forces:R:3 energy=-0.41302612461943433 pbc="F F F"
In       0.00000000       0.00000000       0.00000000       0.00000000       0.00000000       0.11333214
In       0.00000000       0.00000000       5.88242424       0.00000000       0.00000000      -0.11333214
2
Properties=species:S:1:pos:R:3:forces:R:3 energy=-0.408611400176051 pbc="F F F"
In       0.00000000       0.00000000       0.00000000       0.00000000       0.00000000       0.04095973
In       0.00000000       0.00000000       5.94121212       0.00000000       0.00000000      -0.04095973
2
Properties=species:S:1:pos:R:3:forces:R:3 energy=-0.40732303421485727 pbc="F F F"
In       0.00000000       0.00000000       0.00000000       0.00000000       0.00000000       0.01224228
In       0.00000000       0.00000000       6.00000000       0.00000000       0.00000000      -0.01224228
