2
Properties=species:S:1:pos:R:3:forces:R:3 energy=8512.906296094729 pbc="F F F"
In       0.00000000       0.00000000       0.00000000       0.00000000       0.00000000 -140079.34375000
In       0.00000000       0.00000000       0.18000000       0.00000000       0.00000000  140079.34375000
2
Properties=species:S:1:pos:R:3:forces:R:3 energy=3533.978317579103 pbc="F F F"
In       0.00000000       0.00000000       0.00000000       0.00000000       0.00000000  -48266.48828125
In       0.00000000       0.00000000       0.23878788       0.00000000       0.00000000   48266.48828125
2
Properties=species:S:1:pos:R:3:forces:R:3 energy=1683.365524610353 pbc="F F F"
In       0.00000000       0.00000000       0.00000000       0.00000000       0.00000000  -19599.44335938
In       0.00000000       0.00000000       0.29757576       0.00000000       0.00000000   19599.44335938
2
Properties=species:S:1:pos:R:3:forces:R:3 energy=895.3873141611342 pbc="F F F"
In       0.00000000       0.00000000       0.00000000       0.00000000       0.00000000   -8812.75488281
In       0.00000000       0.00000000       0.35636364       0.00000000       0.00000000    8812.75488281
2
Properties=species:S:1:pos:R:3:forces:R:3 energy=529.4012301830949 pbc="F F F"
In       0.00000000       0.00000000       0.00000000       0.00000000       0.00000000   -4250.03857422
In       0.00000000       0.00000000       0.41515152       0.00000000       0.00000000    4250.03857422
2
Properties=species:S:1:pos:R:3:forces:R:3 energy=348.49061617575865 pbc="F F F"
In       0.00000000       0.00000000       0.00000000       0.00000000       0.00000000   -2162.55908203
In       0.00000000       0.00000000       0.47393939       0.00000000       0.00000000    2162.55908203
2
Properties=species:S:1:pos:R:3:forces:R:3 energy=254.49334751483994 pbc="F F F"
In       0.00000000       0.00000000       0.00000000       0.00000000       0.00000000   -1153.73400879
In       0.00000000       0.00000000       0.53272727       0.00000000       0.00000000    1153.73400879
2
Properties=species:S:1:pos:R:3:forces:R:3 energy=202.90203894643253 pbc="F F F"
In       0.00000000       0.00000000       0.00000000       0.00000000       0.00000000    -656.73474121
In       0.00000000       0.00000000       0.59151515       0.00000000       0.00000000     656.73474121
2
Properties=species:S:1:pos:R:3:forces:R:3 energy=172.95105022125077 pbc="F F F"
In       0.00000000       0.00000000       0.00000000       0.00000000       0.00000000    -389.57238770
In       0.00000000       0.00000000       0.65030303       0.00000000       0.00000000     389.57238770
2
Properties=species:S:1:pos:R:3:forces:R:3 energy=154.71434069304848 pbc="F F F"
In       0.00000000       0.00000000       0.00000000       0.00000000       0.00000000    -244.70625305
In       0.00000000       0.00000000       0.70909091       0.00000000       0.00000000     244.70625305
2
Properties=species:S:1:pos:R:3:forces:R:3 energy=142.74586545262193 pbc="F F F"
In       0.00000000       0.00000000       0.00000000       0.00000000       0.00000000    -191.25927734
In       0.00000000       0.00000000       0.76787879       0.00000000       0.00000000     191.25927734
2
Properties=species:S:1:pos:R:3:forces:R:3 energy=130.34919812420864 pbc="F F F"
In       0.00000000       0.00000000       0.00000000       0.00000000       0.00000000    -211.22483826
In       0.00000000       0.00000000       0.82666667       0.00000000       0.00000000     211.22483826
2
Properties=species:S:1:pos:R:3:forces:R:3 energy=117.5223550810696 pbc="F F F"
In       0.00000000       0.00000000       0.00000000       0.00000000       0.00000000    -228.44256592
In       0.00000000       0.00000000       0.88545455       0.00000000       0.00000000     228.44256592
2
Properties=species:S:1:pos:R:3:forces:R:3 energy=103.78847629265724 pbc="F F F"
In       0.00000000       0.00000000       0.00000000       0.00000000       0.00000000    -234.12615967
In       0.00000000       0.00000000       0.94424242       0.00000000       0.00000000     234.12615967
2
Properties=species:S:1:pos:R:3:forces:R:3 energy=90.33450484801679 pbc="F F F"
In       0.00000000       0.00000000       0.00000000       0.00000000       0.00000000    -222.50773621
In       0.00000000       0.00000000       1.00303030       0.00000000       0.00000000     222.50773621
2
Properties=species:S:1:pos:R:3:forces:R:3 energy=77.83298715604178 pbc="F F F"
In       0.00000000       0.00000000       0.00000000       0.00000000       0.00000000    -199.78923035
In       0.00000000       0.00000000       1.06181818       0.00000000       0.00000000     199.78923035
2
Properties=species:S:1:pos:R:3:forces:R:3 energy=67.05487358480015 pbc="F F F"
In       0.00000000       0.00000000       0.00000000       0.00000000       0.00000000    -166.97711182
In       0.00000000       0.00000000       1.12060606       0.00000000       0.00000000     166.97711182
2
Properties=species:S:1:pos:R:3:forces:R:3 energy=58.14534392084093 pbc="F F F"
In       0.00000000       0.00000000       0.00000000       0.00000000       0.00000000    -136.22637939
In       0.00000000       0.00000000       1.17939394       0.00000000       0.00000000     136.22637939
2
Properties=species:S:1:pos:R:3:forces:R:3 energy=50.923188663311585 pbc="F F F"
In       0.00000000       0.00000000       0.00000000       0.00000000       0.00000000    -112.68222809
In       0.00000000       0.00000000       1.23818182       0.00000000       0.00000000     112.68222809
2
Properties=species:S:1:pos:R:3:forces:R:3 energy=44.34709851254346 pbc="F F F"
In       0.00000000       0.00000000       0.00000000       0.00000000       0.00000000    -115.40672302
In       0.00000000       0.00000000       1.29696970       0.00000000       0.00000000     115.40672302
2
Properties=species:S:1:pos:R:3:forces:R:3 energy=37.19040041834358 pbc="F F F"
In       0.00000000       0.00000000       0.00000000       0.00000000       0.00000000    -124.22601318
In       0.00000000       0.00000000       1.35575758       0.00000000       0.00000000     124.22601318
2
Properties=species:S:1:pos:R:3:forces:R:3 energy=30.546930306435083 pbc="F F F"
In       0.00000000       0.00000000       0.00000000       0.00000000       0.00000000     -99.20258331
In       0.00000000       0.00000000       1.41454545       0.00000000       0.00000000      99.20258331
2
Properties=species:S:1:pos:R:3:forces:R:3 energy=25.040900546370757 pbc="F F F"
In       0.00000000       0.00000000       0.00000000       0.00000000       0.00000000     -92.00894165
In       0.00000000       0.00000000       1.47333333       0.00000000       0.00000000      92.00894165
2
Properties=species:S:1:pos:R:3:forces:R:3 energy=19.93204254174898 pbc="F F F"
In       0.00000000       0.00000000       0.00000000       0.00000000       0.00000000     -78.39791870
In       0.00000000       0.00000000       1.53212121       0.00000000       0.00000000      78.39791870
2
Properties=species:S:1:pos:R:3:forces:R:3 energy=15.832788914980151 pbc="F F F"
In       0.00000000       0.00000000       0.00000000       0.00000000       0.00000000     -62.53432465
In       0.00000000       0.00000000       1.59090909       0.00000000       0.00000000      62.53432465
2
Properties=species:S:1:pos:R:3:forces:R:3 energy=12.541349958994877 pbc="F F F"
In       0.00000000       0.00000000       0.00000000       0.00000000       0.00000000     -49.19883347
In       0.00000000       0.00000000       1.64969697       0.00000000       0.00000000      49.19883347
2
Properties=species:S:1:pos:R:3:forces:R:3 energy=10.009684513837877 pbc="F F F"
In       0.00000000       0.00000000       0.00000000       0.00000000       0.00000000     -37.75995255
In       0.00000000       0.00000000       1.70848485       0.00000000       0.00000000      37.75995255
2
Properties=species:S:1:pos:R:3:forces:R:3 energy=8.005365178868226 pbc="F F F"
In       0.00000000       0.00000000       0.00000000       0.00000000       0.00000000     -31.03886986
In       0.00000000       0.00000000       1.76727273       0.00000000       0.00000000      31.03886986
2
Properties=species:S:1:pos:R:3:forces:R:3 energy=6.3162640071138005 pbc="F F F"
In       0.00000000       0.00000000       0.00000000       0.00000000       0.00000000     -26.62319756
In       0.00000000       0.00000000       1.82606061       0.00000000       0.00000000      26.62319756
2
Properties=species:S:1:pos:R:3:forces:R:3 energy=4.862212057438796 pbc="F F F"
In       0.00000000       0.00000000       0.00000000       0.00000000       0.00000000     -22.90787697
In       0.00000000       0.00000000       1.88484848       0.00000000       0.00000000      22.90787697
2
Properties=species:S:1:pos:R:3:forces:R:3 energy=3.616701760485538 pbc="F F F"
In       0.00000000       0.00000000       0.00000000       0.00000000       0.00000000     -19.51707458
In       0.00000000       0.00000000       1.94363636       0.00000000       0.00000000      19.51707458
2
Properties=species:S:1:pos:R:3:forces:R:3 energy=2.560767689731114 pbc="F F F"
In       0.00000000       0.00000000       0.00000000       0.00000000       0.00000000     -16.46841431
In       0.00000000       0.00000000       2.00242424       0.00000000       0.00000000      16.46841431
2
Properties=species:S:1:pos:R:3:forces:R:3 energy=1.672899570417504 pbc="F F F"
In       0.00000000       0.00000000       0.00000000       0.00000000       0.00000000     -13.80159187
In       0.00000000       0.00000000       2.06121212       0.00000000       0.00000000      13.80159187
2
Properties=species:S:1:pos:R:3:forces:R:3 energy=0.9307286078259212 pbc="F F F"
In       0.00000000       0.00000000       0.00000000       0.00000000       0.00000000     -11.50664806
In       0.00000000       0.00000000       2.12000000       0.00000000       0.00000000      11.50664806
2
Properties=species:S:1:pos:R:3:forces:R:3 energy=0.3135182728071846 pbc="F F F"
In       0.00000000       0.00000000       0.00000000       0.00000000       0.00000000      -9.54198551
In       0.00000000       0.00000000       2.17878788       0.00000000       0.00000000       9.54198551
2
Properties=species:S:1:pos:R:3:forces:R:3 energy=-0.1966806375221874 pbc="F F F"
In       0.00000000       0.00000000       0.00000000       0.00000000       0.00000000      -7.85826540
In       0.00000000       0.00000000       2.23757576       0.00000000       0.00000000       7.85826540
2
Properties=species:S:1:pos:R:3:forces:R:3 energy=-0.6150957215284094 pbc="F F F"
In       0.00000000       0.00000000       0.00000000       0.00000000       0.00000000      -6.41351891
In       0.00000000       0.00000000       2.29636364       0.00000000       0.00000000       6.41351891
2
Properties=species:S:1:pos:R:3:forces:R:3 energy=-0.9548542239374085 pbc="F F F"
In       0.00000000       0.00000000       0.00000000       0.00000000       0.00000000      -5.17835331
In       0.00000000       0.00000000       2.35515152       0.00000000       0.00000000       5.17835331
2
Properties=species:S:1:pos:R:3:forces:R:3 energy=-1.2276439866970177 pbc="F F F"
In       0.00000000       0.00000000       0.00000000       0.00000000       0.00000000      -4.13214302
In       0.00000000       0.00000000       2.41393939       0.00000000       0.00000000       4.13214302
2
Properties=species:S:1:pos:R:3:forces:R:3 energy=-1.4440460548581633 pbc="F F F"
In       0.00000000       0.00000000       0.00000000       0.00000000       0.00000000      -3.25684786
In       0.00000000       0.00000000       2.47272727       0.00000000       0.00000000       3.25684786
2
Properties=species:S:1:pos:R:3:forces:R:3 energy=-1.6135471757112883 pbc="F F F"
In       0.00000000       0.00000000       0.00000000       0.00000000       0.00000000      -2.53333426
In       0.00000000       0.00000000       2.53151515       0.00000000       0.00000000       2.53333426
2
Properties=species:S:1:pos:R:3:forces:R:3 energy=-1.7444648573249113 pbc="F F F"
In       0.00000000       0.00000000       0.00000000       0.00000000       0.00000000      -1.94049251
In       0.00000000       0.00000000       2.59030303       0.00000000       0.00000000       1.94049251
2
Properties=species:S:1:pos:R:3:forces:R:3 energy=-1.8438253742608595 pbc="F F F"
In       0.00000000       0.00000000       0.00000000       0.00000000       0.00000000      -1.45597732
In       0.00000000       0.00000000       2.64909091       0.00000000       0.00000000       1.45597732
2
Properties=species:S:1:pos:R:3:forces:R:3 energy=-1.9173382409471929 pbc="F F F"
In       0.00000000       0.00000000       0.00000000       0.00000000       0.00000000      -1.05753267
In       0.00000000       0.00000000       2.70787879       0.00000000       0.00000000       1.05753267
2
Properties=species:S:1:pos:R:3:forces:R:3 energy=-1.9694519351014494 pbc="F F F"
In       0.00000000       0.00000000       0.00000000       0.00000000       0.00000000      -0.72486693
In       0.00000000       0.00000000       2.76666667       0.00000000       0.00000000       0.72486693
2
Properties=species:S:1:pos:R:3:forces:R:3 energy=-2.0035303113040364 pbc="F F F"
In       0.00000000       0.00000000       0.00000000       0.00000000       0.00000000      -0.44166023
In       0.00000000       0.00000000       2.82545455       0.00000000       0.00000000       0.44166023
2
Properties=species:S:1:pos:R:3:forces:R:3 energy=-2.0221287242228367 pbc="F F F"
In       0.00000000       0.00000000       0.00000000       0.00000000       0.00000000      -0.19680299
In       0.00000000       0.00000000       2.88424242       0.00000000       0.00000000       0.19680299
2
Properties=species:S:1:pos:R:3:forces:R:3 energy=-2.0272983454187767 pbc="F F F"
In       0.00000000       0.00000000       0.00000000       0.00000000       0.00000000       0.01585511
In       0.00000000       0.00000000       2.94303030       0.00000000       0.00000000      -0.01585511
2
Properties=species:S:1:pos:R:3:forces:R:3 energy=-2.0208398105397514 pbc="F F F"
In       0.00000000       0.00000000       0.00000000       0.00000000       0.00000000       0.19912058
In       0.00000000       0.00000000       3.00181818       0.00000000       0.00000000      -0.19912058
2
Properties=species:S:1:pos:R:3:forces:R:3 energy=-2.004433553936224 pbc="F F F"
In       0.00000000       0.00000000       0.00000000       0.00000000       0.00000000       0.35449976
In       0.00000000       0.00000000       3.06060606       0.00000000       0.00000000      -0.35449976
2
Properties=species:S:1:pos:R:3:forces:R:3 energy=-1.9796745141002299 pbc="F F F"
In       0.00000000       0.00000000       0.00000000       0.00000000       0.00000000       0.48360041
In       0.00000000       0.00000000       3.11939394       0.00000000       0.00000000      -0.48360041
2
Properties=species:S:1:pos:R:3:forces:R:3 energy=-1.9480477443191202 pbc="F F F"
In       0.00000000       0.00000000       0.00000000       0.00000000       0.00000000       0.58853757
In       0.00000000       0.00000000       3.17818182       0.00000000       0.00000000      -0.58853757
2
Properties=species:S:1:pos:R:3:forces:R:3 energy=-1.910902290690444 pbc="F F F"
In       0.00000000       0.00000000       0.00000000       0.00000000       0.00000000       0.67178172
In       0.00000000       0.00000000       3.23696970       0.00000000       0.00000000      -0.67178172
2
Properties=species:S:1:pos:R:3:forces:R:3 energy=-1.8694352290192633 pbc="F F F"
In       0.00000000       0.00000000       0.00000000       0.00000000       0.00000000       0.73605287
In       0.00000000       0.00000000       3.29575758       0.00000000       0.00000000      -0.73605287
2
Properties=species:S:1:pos:R:3:forces:R:3 energy=-1.8246711786068337 pbc="F F F"
In       0.00000000       0.00000000       0.00000000       0.00000000       0.00000000       0.78448087
In       0.00000000       0.00000000       3.35454545       0.00000000       0.00000000      -0.78448087
2
Properties=species:S:1:pos:R:3:forces:R:3 energy=-1.7774424406906473 pbc="F F F"
In       0.00000000       0.00000000       0.00000000       0.00000000       0.00000000       0.82046491
In       0.00000000       0.00000000       3.41333333       0.00000000       0.00000000      -0.82046491
2
Properties=species:S:1:pos:R:3:forces:R:3 energy=-1.7283941709694468 pbc="F F F"
In       0.00000000       0.00000000       0.00000000       0.00000000       0.00000000       0.84669763
In       0.00000000       0.00000000       3.47212121       0.00000000       0.00000000      -0.84669763
2
Properties=species:S:1:pos:R:3:forces:R:3 energy=-1.6780544132867201 pbc="F F F"
In       0.00000000       0.00000000       0.00000000       0.00000000       0.00000000       0.86460233
In       0.00000000       0.00000000       3.53090909       0.00000000       0.00000000      -0.86460233
2
Properties=species:S:1:pos:R:3:forces:R:3 energy=-1.626881948833999 pbc="F F F"
In       0.00000000       0.00000000       0.00000000       0.00000000       0.00000000       0.87518400
In       0.00000000       0.00000000       3.58969697       0.00000000       0.00000000      -0.87518400
2
Properties=species:S:1:pos:R:3:forces:R:3 energy=-1.5752694025674305 pbc="F F F"
In       0.00000000       0.00000000       0.00000000       0.00000000       0.00000000       0.87984580
In       0.00000000       0.00000000       3.64848485       0.00000000       0.00000000      -0.87984580
2
Properties=species:S:1:pos:R:3:forces:R:3 energy=-1.5235170404216194 pbc="F F F"
In       0.00000000       0.00000000       0.00000000       0.00000000       0.00000000       0.88024354
In       0.00000000       0.00000000       3.70727273       0.00000000       0.00000000      -0.88024354
2
Properties=species:S:1:pos:R:3:forces:R:3 energy=-1.4718296303467522 pbc="F F F"
In       0.00000000       0.00000000       0.00000000       0.00000000       0.00000000       0.87777138
In       0.00000000       0.00000000       3.76606061       0.00000000       0.00000000      -0.87777138
2
Properties=species:S:1:pos:R:3:forces:R:3 energy=-1.420351254699818 pbc="F F F"
In       0.00000000       0.00000000       0.00000000       0.00000000       0.00000000       0.87326491
In       0.00000000       0.00000000       3.82484848       0.00000000       0.00000000      -0.87326491
2
Properties=species:S:1:pos:R:3:forces:R:3 energy=-1.3691897643241084 pbc="F F F"
In       0.00000000       0.00000000       0.00000000       0.00000000       0.00000000       0.86696023
In       0.00000000       0.00000000       3.88363636       0.00000000       0.00000000      -0.86696023
2
Properties=species:S:1:pos:R:3:forces:R:3 energy=-1.3184575956599127 pbc="F F F"
In       0.00000000       0.00000000       0.00000000       0.00000000       0.00000000       0.85862291
In       0.00000000       0.00000000       3.94242424       0.00000000       0.00000000      -0.85862291
2
Properties=species:S:1:pos:R:3:forces:R:3 energy=-1.2682872362902706 pbc="F F F"
In       0.00000000       0.00000000       0.00000000       0.00000000       0.00000000       0.84775388
In       0.00000000       0.00000000       4.00121212       0.00000000       0.00000000      -0.84775388
2
Properties=species:S:1:pos:R:3:forces:R:3 energy=-1.218843201067041 pbc="F F F"
In       0.00000000       0.00000000       0.00000000       0.00000000       0.00000000       0.83378124
In       0.00000000       0.00000000       4.06000000       0.00000000       0.00000000      -0.83378124
2
Properties=species:S:1:pos:R:3:forces:R:3 energy=-1.1703251345604024 pbc="F F F"
In       0.00000000       0.00000000       0.00000000       0.00000000       0.00000000       0.81621552
In       0.00000000       0.00000000       4.11878788       0.00000000       0.00000000      -0.81621552
2
Properties=species:S:1:pos:R:3:forces:R:3 energy=-1.1229524959210602 pbc="F F F"
In       0.00000000       0.00000000       0.00000000       0.00000000       0.00000000       0.79474604
In       0.00000000       0.00000000       4.17757576       0.00000000       0.00000000      -0.79474604
2
Properties=species:S:1:pos:R:3:forces:R:3 energy=-1.076959646292831 pbc="F F F"
In       0.00000000       0.00000000       0.00000000       0.00000000       0.00000000       0.76930404
In       0.00000000       0.00000000       4.23636364       0.00000000       0.00000000      -0.76930404
2
Properties=species:S:1:pos:R:3:forces:R:3 energy=-1.0325739261427371 pbc="F F F"
In       0.00000000       0.00000000       0.00000000       0.00000000       0.00000000       0.74012560
In       0.00000000       0.00000000       4.29515152       0.00000000       0.00000000      -0.74012560
2
Properties=species:S:1:pos:R:3:forces:R:3 energy=-0.9900013208039419 pbc="F F F"
In       0.00000000       0.00000000       0.00000000       0.00000000       0.00000000       0.70781595
In       0.00000000       0.00000000       4.35393939       0.00000000       0.00000000      -0.70781595
2
Properties=species:S:1:pos:R:3:forces:R:3 energy=-0.9493953278442454 pbc="F F F"
In       0.00000000       0.00000000       0.00000000       0.00000000       0.00000000       0.67333913
In       0.00000000       0.00000000       4.41272727       0.00000000       0.00000000      -0.67333913
2
Properties=species:S:1:pos:R:3:forces:R:3 energy=-0.9108503827161771 pbc="F F F"
In       0.00000000       0.00000000       0.00000000       0.00000000       0.00000000       0.63793337
In       0.00000000       0.00000000       4.47151515       0.00000000       0.00000000      -0.63793337
2
Properties=species:S:1:pos:R:3:forces:R:3 energy=-0.8743821302035519 pbc="F F F"
In       0.00000000       0.00000000       0.00000000       0.00000000       0.00000000       0.60288876
In       0.00000000       0.00000000       4.53030303       0.00000000       0.00000000      -0.60288876
2
Properties=species:S:1:pos:R:3:forces:R:3 energy=-0.8399374906868169 pbc="F F F"
In       0.00000000       0.00000000       0.00000000       0.00000000       0.00000000       0.56925106
In       0.00000000       0.00000000       4.58909091       0.00000000       0.00000000      -0.56925106
2
Properties=species:S:1:pos:R:3:forces:R:3 energy=-0.8074137362132252 pbc="F F F"
In       0.00000000       0.00000000       0.00000000       0.00000000       0.00000000       0.53758776
In       0.00000000       0.00000000       4.64787879       0.00000000       0.00000000      -0.53758776
2
Properties=species:S:1:pos:R:3:forces:R:3 energy=-0.7766910167939026 pbc="F F F"
In       0.00000000       0.00000000       0.00000000       0.00000000       0.00000000       0.50789440
In       0.00000000       0.00000000       4.70666667       0.00000000       0.00000000      -0.50789440
2
Properties=species:S:1:pos:R:3:forces:R:3 energy=-0.7476661760762867 pbc="F F F"
In       0.00000000       0.00000000       0.00000000       0.00000000       0.00000000       0.47978047
In       0.00000000       0.00000000       4.76545455       0.00000000       0.00000000      -0.47978047
2
Properties=species:S:1:pos:R:3:forces:R:3 energy=-0.7202580098081308 pbc="F F F"
In       0.00000000       0.00000000       0.00000000       0.00000000       0.00000000       0.45281190
In       0.00000000       0.00000000       4.82424242       0.00000000       0.00000000      -0.45281190
2
Properties=species:S:1:pos:R:3:forces:R:3 energy=-0.6944065494138152 pbc="F F F"
In       0.00000000       0.00000000       0.00000000       0.00000000       0.00000000       0.42696127
In       0.00000000       0.00000000       4.88303030       0.00000000       0.00000000      -0.42696127
2
Properties=species:S:1:pos:R:3:forces:R:3 energy=-0.6700244487788354 pbc="F F F"
In       0.00000000       0.00000000       0.00000000       0.00000000       0.00000000       0.40285552
In       0.00000000       0.00000000       4.94181818       0.00000000       0.00000000      -0.40285552
2
Properties=species:S:1:pos:R:3:forces:R:3 energy=-0.6469806304023787 pbc="F F F"
In       0.00000000       0.00000000       0.00000000       0.00000000       0.00000000       0.38168442
In       0.00000000       0.00000000       5.00060606       0.00000000       0.00000000      -0.38168442
2
Properties=species:S:1:pos:R:3:forces:R:3 energy=-0.6250664325429378 pbc="F F F"
In       0.00000000       0.00000000       0.00000000       0.00000000       0.00000000       0.36457971
In       0.00000000       0.00000000       5.05939394       0.00000000       0.00000000      -0.36457971
2
Properties=species:S:1:pos:R:3:forces:R:3 energy=-0.604033287689323 pbc="F F F"
In       0.00000000       0.00000000       0.00000000       0.00000000       0.00000000       0.35155261
In       0.00000000       0.00000000       5.11818182       0.00000000       0.00000000      -0.35155261
2
Properties=species:S:1:pos:R:3:forces:R:3 energy=-0.5836975354526011 pbc="F F F"
In       0.00000000       0.00000000       0.00000000       0.00000000       0.00000000       0.34025675
In       0.00000000       0.00000000       5.17696970       0.00000000       0.00000000      -0.34025675
2
Properties=species:S:1:pos:R:3:forces:R:3 energy=-0.564098658642774 pbc="F F F"
In       0.00000000       0.00000000       0.00000000       0.00000000       0.00000000       0.32537764
In       0.00000000       0.00000000       5.23575758       0.00000000       0.00000000      -0.32537764
2
Properties=species:S:1:pos:R:3:forces:R:3 energy=-0.5456337190851948 pbc="F F F"
In       0.00000000       0.00000000       0.00000000       0.00000000       0.00000000       0.30097389
In       0.00000000       0.00000000       5.29454545       0.00000000       0.00000000      -0.30097389
2
Properties=species:S:1:pos:R:3:forces:R:3 energy=-0.5288665431457734 pbc="F F F"
In       0.00000000       0.00000000       0.00000000       0.00000000       0.00000000       0.26931652
In       0.00000000       0.00000000       5.35333333       0.00000000       0.00000000      -0.26931652
2
Properties=species:S:1:pos:R:3:forces:R:3 energy=-0.5137254829340482 pbc="F F F"
In       0.00000000       0.00000000       0.00000000       0.00000000       0.00000000       0.24998502
In       0.00000000       0.00000000       5.41212121       0.00000000       0.00000000      -0.24998502
2
Properties=species:S:1:pos:R:3:forces:R:3 energy=-0.49892501845798226 pbc="F F F"
In       0.00000000       0.00000000       0.00000000       0.00000000       0.00000000       0.25658128
In       0.00000000       0.00000000       5.47090909       0.00000000       0.00000000      -0.25658128
2
Properties=species:S:1:pos:R:3:forces:R:3 energy=-0.4836738911108503 pbc="F F F"
In       0.00000000       0.00000000       0.00000000       0.00000000       0.00000000       0.25745344
In       0.00000000       0.00000000       5.52969697       0.00000000       0.00000000      -0.25745344
2
Properties=species:S:1:pos:R:3:forces:R:3 energy=-0.46932268921846343 pbc="F F F"
In       0.00000000       0.00000000       0.00000000       0.00000000       0.00000000       0.22656651
In       0.00000000       0.00000000       5.58848485       0.00000000       0.00000000      -0.22656651
2
Properties=species:S:1:pos:R:3:forces:R:3 energy=-0.4571144932903447 pbc="F F F"
In       0.00000000       0.00000000       0.00000000       0.00000000       0.00000000       0.19203489
In       0.00000000       0.00000000       5.64727273       0.00000000       0.00000000      -0.19203489
2
Properties=species:S:1:pos:R:3:forces:R:3 energy=-0.44602858642012533 pbc="F F F"
In       0.00000000       0.00000000       0.00000000       0.00000000       0.00000000       0.19228178
In       0.00000000       0.00000000       5.70606061       0.00000000       0.00000000      -0.19228178
2
Properties=species:S:1:pos:R:3:forces:R:3 energy=-0.43405368077394507 pbc="F F F"
In       0.00000000       0.00000000       0.00000000       0.00000000       0.00000000       0.21225174
In       0.00000000       0.00000000       5.76484848       0.00000000       0.00000000      -0.21225174
2
Properties=species:S:1:pos:R:3:forces:R:3 energy=-0.4219935539501366 pbc="F F F"
In       0.00000000       0.00000000       0.00000000       0.00000000       0.00000000       0.18791582
In       0.00000000       0.00000000       5.82363636       0.00000000       0.00000000      -0.18791582
2
Properties=species:S:1:pos:R:3:forces:R:3 energy=-0.41302612937116756 pbc="F F F"
In       0.00000000       0.00000000       0.00000000       0.00000000       0.00000000       0.11328895
In       0.00000000       0.00000000       5.88242424       0.00000000       0.00000000      -0.11328895
2
Properties=species:S:1:pos:R:3:forces:R:3 energy=-0.4086113970082289 pbc="F F F"
In       0.00000000       0.00000000       0.00000000       0.00000000       0.00000000       0.04095647
In       0.00000000       0.00000000       5.94121212       0.00000000       0.00000000      -0.04095647
2
Properties=species:S:1:pos:R:3:forces:R:3 energy=-0.4073230310470351 pbc="F F F"
In       0.00000000       0.00000000       0.00000000       0.00000000       0.00000000       0.01224228
In       0.00000000       0.00000000       6.00000000       0.00000000       0.00000000      -0.01224228
