2
Properties=species:S:1:pos:R:3:forces:R:3 energy=41015.41020234473 pbc="F F F"
In       0.00000000       0.00000000       0.00000000       0.00000000       0.00000000 -984693.25000000
In       0.00000000       0.00000000       0.10000000       0.00000000       0.00000000  984693.25000000
2
Properties=species:S:1:pos:R:3:forces:R:3 energy=12068.254928907229 pbc="F F F"
In       0.00000000       0.00000000       0.00000000       0.00000000       0.00000000 -214782.76562500
In       0.00000000       0.00000000       0.15959596       0.00000000       0.00000000  214782.76562500
2
Properties=species:S:1:pos:R:3:forces:R:3 energy=4654.251022657228 pbc="F F F"
In       0.00000000       0.00000000       0.00000000       0.00000000       0.00000000  -67308.66406250
In       0.00000000       0.00000000       0.21919192       0.00000000       0.00000000   67308.66406250
2
Properties=species:S:1:pos:R:3:forces:R:3 energy=2106.768356641603 pbc="F F F"
In       0.00000000       0.00000000       0.00000000       0.00000000       0.00000000  -25796.87109375
In       0.00000000       0.00000000       0.27878788       0.00000000       0.00000000   25796.87109375
2
Properties=species:S:1:pos:R:3:forces:R:3 energy=1073.993698438478 pbc="F F F"
In       0.00000000       0.00000000       0.00000000       0.00000000       0.00000000  -11158.03027344
In       0.00000000       0.00000000       0.33838384       0.00000000       0.00000000   11158.03027344
2
Properties=species:S:1:pos:R:3:forces:R:3 energy=610.4498141674699 pbc="F F F"
In       0.00000000       0.00000000       0.00000000       0.00000000       0.00000000   -5227.10351562
In       0.00000000       0.00000000       0.39797980       0.00000000       0.00000000    5227.10351562
2
Properties=species:S:1:pos:R:3:forces:R:3 energy=387.317367884743 pbc="F F F"
In       0.00000000       0.00000000       0.00000000       0.00000000       0.00000000   -2597.57373047
In       0.00000000       0.00000000       0.45757576       0.00000000       0.00000000    2597.57373047
2
Properties=species:S:1:pos:R:3:forces:R:3 energy=273.95884738960183 pbc="F F F"
In       0.00000000       0.00000000       0.00000000       0.00000000       0.00000000   -1355.33129883
In       0.00000000       0.00000000       0.51717172       0.00000000       0.00000000    1355.33129883
2
Properties=species:S:1:pos:R:3:forces:R:3 energy=213.2786105953703 pbc="F F F"
In       0.00000000       0.00000000       0.00000000       0.00000000       0.00000000    -752.84619141
In       0.00000000       0.00000000       0.57676768       0.00000000       0.00000000     752.84619141
2
Properties=species:S:1:pos:R:3:forces:R:3 energy=178.71591226912636 pbc="F F F"
In       0.00000000       0.00000000       0.00000000       0.00000000       0.00000000    -438.74624634
In       0.00000000       0.00000000       0.63636364       0.00000000       0.00000000     438.74624634
2
Properties=species:S:1:pos:R:3:forces:R:3 energy=158.09292648947124 pbc="F F F"
In       0.00000000       0.00000000       0.00000000       0.00000000       0.00000000    -270.39550781
In       0.00000000       0.00000000       0.69595960       0.00000000       0.00000000     270.39550781
2
Properties=species:S:1:pos:R:3:forces:R:3 energy=145.03839167556436 pbc="F F F"
In       0.00000000       0.00000000       0.00000000       0.00000000       0.00000000    -183.55352783
In       0.00000000       0.00000000       0.75555556       0.00000000       0.00000000     183.55352783
2
Properties=species:S:1:pos:R:3:forces:R:3 energy=132.7864997282726 pbc="F F F"
In       0.00000000       0.00000000       0.00000000       0.00000000       0.00000000    -212.51487732
In       0.00000000       0.00000000       0.81515152       0.00000000       0.00000000     212.51487732
2
Properties=species:S:1:pos:R:3:forces:R:3 energy=119.94833464781009 pbc="F F F"
In       0.00000000       0.00000000       0.00000000       0.00000000       0.00000000    -224.57025146
In       0.00000000       0.00000000       0.87474747       0.00000000       0.00000000     224.57025146
2
Properties=species:S:1:pos:R:3:forces:R:3 energy=106.1109020779216 pbc="F F F"
In       0.00000000       0.00000000       0.00000000       0.00000000       0.00000000    -235.03326416
In       0.00000000       0.00000000       0.93434343       0.00000000       0.00000000     235.03326416
2
Properties=species:S:1:pos:R:3:forces:R:3 energy=92.36731116847344 pbc="F F F"
In       0.00000000       0.00000000       0.00000000       0.00000000       0.00000000    -224.67546082
In       0.00000000       0.00000000       0.99393939       0.00000000       0.00000000     224.67546082
2
Properties=species:S:1:pos:R:3:forces:R:3 energy=79.50579285347557 pbc="F F F"
In       0.00000000       0.00000000       0.00000000       0.00000000       0.00000000    -204.07231140
In       0.00000000       0.00000000       1.05353535       0.00000000       0.00000000     204.07231140
2
Properties=species:S:1:pos:R:3:forces:R:3 energy=68.31807232963325 pbc="F F F"
In       0.00000000       0.00000000       0.00000000       0.00000000       0.00000000    -171.02461243
In       0.00000000       0.00000000       1.11313131       0.00000000       0.00000000     171.02461243
2
Properties=species:S:1:pos:R:3:forces:R:3 energy=59.065090199389466 pbc="F F F"
In       0.00000000       0.00000000       0.00000000       0.00000000       0.00000000    -139.69300842
In       0.00000000       0.00000000       1.17272727       0.00000000       0.00000000     139.69300842
2
Properties=species:S:1:pos:R:3:forces:R:3 energy=51.58698017408591 pbc="F F F"
In       0.00000000       0.00000000       0.00000000       0.00000000       0.00000000    -113.98669434
In       0.00000000       0.00000000       1.23232323       0.00000000       0.00000000     113.98669434
2
Properties=species:S:1:pos:R:3:forces:R:3 energy=44.92700863247266 pbc="F F F"
In       0.00000000       0.00000000       0.00000000       0.00000000       0.00000000    -114.25947571
In       0.00000000       0.00000000       1.29191919       0.00000000       0.00000000     114.25947571
2
Properties=species:S:1:pos:R:3:forces:R:3 energy=37.718602310501595 pbc="F F F"
In       0.00000000       0.00000000       0.00000000       0.00000000       0.00000000    -124.72817993
In       0.00000000       0.00000000       1.35151515       0.00000000       0.00000000     124.72817993
2
Properties=species:S:1:pos:R:3:forces:R:3 energy=30.890022106430013 pbc="F F F"
In       0.00000000       0.00000000       0.00000000       0.00000000       0.00000000    -100.62046051
In       0.00000000       0.00000000       1.41111111       0.00000000       0.00000000     100.62046051
2
Properties=species:S:1:pos:R:3:forces:R:3 energy=25.28263966105094 pbc="F F F"
In       0.00000000       0.00000000       0.00000000       0.00000000       0.00000000     -92.08877563
In       0.00000000       0.00000000       1.47070707       0.00000000       0.00000000      92.08877563
2
Properties=species:S:1:pos:R:3:forces:R:3 energy=20.075185108895763 pbc="F F F"
In       0.00000000       0.00000000       0.00000000       0.00000000       0.00000000     -79.02625275
In       0.00000000       0.00000000       1.53030303       0.00000000       0.00000000      79.02625275
2
Properties=species:S:1:pos:R:3:forces:R:3 energy=15.896076561266483 pbc="F F F"
In       0.00000000       0.00000000       0.00000000       0.00000000       0.00000000     -62.75097275
In       0.00000000       0.00000000       1.58989899       0.00000000       0.00000000      62.75097275
2
Properties=species:S:1:pos:R:3:forces:R:3 energy=12.551291041062163 pbc="F F F"
In       0.00000000       0.00000000       0.00000000       0.00000000       0.00000000     -49.24554825
In       0.00000000       0.00000000       1.64949495       0.00000000       0.00000000      49.24554825
2
Properties=species:S:1:pos:R:3:forces:R:3 energy=9.986816439768146 pbc="F F F"
In       0.00000000       0.00000000       0.00000000       0.00000000       0.00000000     -37.66926956
In       0.00000000       0.00000000       1.70909091       0.00000000       0.00000000      37.66926956
2
Properties=species:S:1:pos:R:3:forces:R:3 energy=7.96155741721734 pbc="F F F"
In       0.00000000       0.00000000       0.00000000       0.00000000       0.00000000     -30.91554832
In       0.00000000       0.00000000       1.76868687       0.00000000       0.00000000      30.91554832
2
Properties=species:S:1:pos:R:3:forces:R:3 energy=6.257266797361148 pbc="F F F"
In       0.00000000       0.00000000       0.00000000       0.00000000       0.00000000     -26.47489929
In       0.00000000       0.00000000       1.82828283       0.00000000       0.00000000      26.47489929
2
Properties=species:S:1:pos:R:3:forces:R:3 energy=4.793072777924757 pbc="F F F"
In       0.00000000       0.00000000       0.00000000       0.00000000       0.00000000     -22.72562218
In       0.00000000       0.00000000       1.88787879       0.00000000       0.00000000      22.72562218
2
Properties=species:S:1:pos:R:3:forces:R:3 energy=3.5421924287629176 pbc="F F F"
In       0.00000000       0.00000000       0.00000000       0.00000000       0.00000000     -19.30693436
In       0.00000000       0.00000000       1.94747475       0.00000000       0.00000000      19.30693436
2
Properties=species:S:1:pos:R:3:forces:R:3 energy=2.4847648516800107 pbc="F F F"
In       0.00000000       0.00000000       0.00000000       0.00000000       0.00000000     -16.24356079
In       0.00000000       0.00000000       2.00707071       0.00000000       0.00000000      16.24356079
2
Properties=species:S:1:pos:R:3:forces:R:3 energy=1.5982378763916993 pbc="F F F"
In       0.00000000       0.00000000       0.00000000       0.00000000       0.00000000     -13.57349205
In       0.00000000       0.00000000       2.06666667       0.00000000       0.00000000      13.57349205
2
Properties=species:S:1:pos:R:3:forces:R:3 energy=0.8593660937489934 pbc="F F F"
In       0.00000000       0.00000000       0.00000000       0.00000000       0.00000000     -11.28249645
In       0.00000000       0.00000000       2.12626263       0.00000000       0.00000000      11.28249645
2
Properties=species:S:1:pos:R:3:forces:R:3 energy=0.24681774361305248 pbc="F F F"
In       0.00000000       0.00000000       0.00000000       0.00000000       0.00000000      -9.32555962
In       0.00000000       0.00000000       2.18585859       0.00000000       0.00000000       9.32555962
2
Properties=species:S:1:pos:R:3:forces:R:3 energy=-0.25777928804737077 pbc="F F F"
In       0.00000000       0.00000000       0.00000000       0.00000000       0.00000000      -7.65153456
In       0.00000000       0.00000000       2.24545455       0.00000000       0.00000000       7.65153456
2
Properties=species:S:1:pos:R:3:forces:R:3 energy=-0.6699599721860807 pbc="F F F"
In       0.00000000       0.00000000       0.00000000       0.00000000       0.00000000      -6.21836138
In       0.00000000       0.00000000       2.30505051       0.00000000       0.00000000       6.21836138
2
Properties=species:S:1:pos:R:3:forces:R:3 energy=-1.0031603547521697 pbc="F F F"
In       0.00000000       0.00000000       0.00000000       0.00000000       0.00000000      -4.99705505
In       0.00000000       0.00000000       2.36464646       0.00000000       0.00000000       4.99705505
2
Properties=species:S:1:pos:R:3:forces:R:3 energy=-1.269362319723463 pbc="F F F"
In       0.00000000       0.00000000       0.00000000       0.00000000       0.00000000      -3.96690273
In       0.00000000       0.00000000       2.42424242       0.00000000       0.00000000       3.96690273
2
Properties=species:S:1:pos:R:3:forces:R:3 energy=-1.4794064244385945 pbc="F F F"
In       0.00000000       0.00000000       0.00000000       0.00000000       0.00000000      -3.10908580
In       0.00000000       0.00000000       2.48383838       0.00000000       0.00000000       3.10908580
2
Properties=species:S:1:pos:R:3:forces:R:3 energy=-1.6429629964940453 pbc="F F F"
In       0.00000000       0.00000000       0.00000000       0.00000000       0.00000000      -2.40328765
In       0.00000000       0.00000000       2.54343434       0.00000000       0.00000000       2.40328765
2
Properties=species:S:1:pos:R:3:forces:R:3 energy=-1.7684369972274843 pbc="F F F"
In       0.00000000       0.00000000       0.00000000       0.00000000       0.00000000      -1.82718658
In       0.00000000       0.00000000       2.60303030       0.00000000       0.00000000       1.82718658
2
Properties=species:S:1:pos:R:3:forces:R:3 energy=-1.8628604434215217 pbc="F F F"
In       0.00000000       0.00000000       0.00000000       0.00000000       0.00000000      -1.35739303
In       0.00000000       0.00000000       2.66262626       0.00000000       0.00000000       1.35739303
2
Properties=species:S:1:pos:R:3:forces:R:3 energy=-1.9318818757045408 pbc="F F F"
In       0.00000000       0.00000000       0.00000000       0.00000000       0.00000000      -0.97100526
In       0.00000000       0.00000000       2.72222222       0.00000000       0.00000000       0.97100526
2
Properties=species:S:1:pos:R:3:forces:R:3 energy=-1.9798459785167468 pbc="F F F"
In       0.00000000       0.00000000       0.00000000       0.00000000       0.00000000      -0.64768666
In       0.00000000       0.00000000       2.78181818       0.00000000       0.00000000       0.64768666
2
Properties=species:S:1:pos:R:3:forces:R:3 energy=-2.010017459155683 pbc="F F F"
In       0.00000000       0.00000000       0.00000000       0.00000000       0.00000000      -0.37173307
In       0.00000000       0.00000000       2.84141414       0.00000000       0.00000000       0.37173307
2
Properties=species:S:1:pos:R:3:forces:R:3 energy=-2.0248906391328547 pbc="F F F"
In       0.00000000       0.00000000       0.00000000       0.00000000       0.00000000      -0.13303135
In       0.00000000       0.00000000       2.90101010       0.00000000       0.00000000       0.13303135
2
Properties=species:S:1:pos:R:3:forces:R:3 energy=-2.0265079802274526 pbc="F F F"
In       0.00000000       0.00000000       0.00000000       0.00000000       0.00000000       0.07364760
In       0.00000000       0.00000000       2.96060606       0.00000000       0.00000000      -0.07364760
2
Properties=species:S:1:pos:R:3:forces:R:3 energy=-2.01670102413967 pbc="F F F"
In       0.00000000       0.00000000       0.00000000       0.00000000       0.00000000       0.25063908
In       0.00000000       0.00000000       3.02020202       0.00000000       0.00000000      -0.25063908
2
Properties=species:S:1:pos:R:3:forces:R:3 energy=-1.9971952023192432 pbc="F F F"
In       0.00000000       0.00000000       0.00000000       0.00000000       0.00000000       0.39944297
In       0.00000000       0.00000000       3.07979798       0.00000000       0.00000000      -0.39944297
2
Properties=species:S:1:pos:R:3:forces:R:3 energy=-1.9696155575481353 pbc="F F F"
In       0.00000000       0.00000000       0.00000000       0.00000000       0.00000000       0.52189380
In       0.00000000       0.00000000       3.13939394       0.00000000       0.00000000      -0.52189380
2
Properties=species:S:1:pos:R:3:forces:R:3 energy=-1.9354659637191414 pbc="F F F"
In       0.00000000       0.00000000       0.00000000       0.00000000       0.00000000       0.62034702
In       0.00000000       0.00000000       3.19898990       0.00000000       0.00000000      -0.62034702
2
Properties=species:S:1:pos:R:3:forces:R:3 energy=-1.8960989313756225 pbc="F F F"
In       0.00000000       0.00000000       0.00000000       0.00000000       0.00000000       0.69746351
In       0.00000000       0.00000000       3.25858586       0.00000000       0.00000000      -0.69746351
2
Properties=species:S:1:pos:R:3:forces:R:3 energy=-1.8526988269256701 pbc="F F F"
In       0.00000000       0.00000000       0.00000000       0.00000000       0.00000000       0.75620729
In       0.00000000       0.00000000       3.31818182       0.00000000       0.00000000      -0.75620729
2
Properties=species:S:1:pos:R:3:forces:R:3 energy=-1.806262086277961 pbc="F F F"
In       0.00000000       0.00000000       0.00000000       0.00000000       0.00000000       0.80000943
In       0.00000000       0.00000000       3.37777778       0.00000000       0.00000000      -0.80000943
2
Properties=species:S:1:pos:R:3:forces:R:3 energy=-1.7575726638187392 pbc="F F F"
In       0.00000000       0.00000000       0.00000000       0.00000000       0.00000000       0.83226573
In       0.00000000       0.00000000       3.43737374       0.00000000       0.00000000      -0.83226573
2
Properties=species:S:1:pos:R:3:forces:R:3 energy=-1.70724604153911 pbc="F F F"
In       0.00000000       0.00000000       0.00000000       0.00000000       0.00000000       0.85522872
In       0.00000000       0.00000000       3.49696970       0.00000000       0.00000000      -0.85522872
2
Properties=species:S:1:pos:R:3:forces:R:3 energy=-1.6557981855971597 pbc="F F F"
In       0.00000000       0.00000000       0.00000000       0.00000000       0.00000000       0.87004799
In       0.00000000       0.00000000       3.55656566       0.00000000       0.00000000      -0.87004799
2
Properties=species:S:1:pos:R:3:forces:R:3 energy=-1.6036820344614073 pbc="F F F"
In       0.00000000       0.00000000       0.00000000       0.00000000       0.00000000       0.87791580
In       0.00000000       0.00000000       3.61616162       0.00000000       0.00000000      -0.87791580
2
Properties=species:S:1:pos:R:3:forces:R:3 energy=-1.5512636185233186 pbc="F F F"
In       0.00000000       0.00000000       0.00000000       0.00000000       0.00000000       0.88046670
In       0.00000000       0.00000000       3.67575758       0.00000000       0.00000000      -0.88046670
2
Properties=species:S:1:pos:R:3:forces:R:3 energy=-1.4988102107751415 pbc="F F F"
In       0.00000000       0.00000000       0.00000000       0.00000000       0.00000000       0.87935537
In       0.00000000       0.00000000       3.73535354       0.00000000       0.00000000      -0.87935537
2
Properties=species:S:1:pos:R:3:forces:R:3 energy=-1.4464999424581009 pbc="F F F"
In       0.00000000       0.00000000       0.00000000       0.00000000       0.00000000       0.87578303
In       0.00000000       0.00000000       3.79494949       0.00000000       0.00000000      -0.87578303
2
Properties=species:S:1:pos:R:3:forces:R:3 energy=-1.3944604840365262 pbc="F F F"
In       0.00000000       0.00000000       0.00000000       0.00000000       0.00000000       0.87031013
In       0.00000000       0.00000000       3.85454545       0.00000000       0.00000000      -0.87031013
2
Properties=species:S:1:pos:R:3:forces:R:3 energy=-1.3428043846808362 pbc="F F F"
In       0.00000000       0.00000000       0.00000000       0.00000000       0.00000000       0.86291569
In       0.00000000       0.00000000       3.91414141       0.00000000       0.00000000      -0.86291569
2
Properties=species:S:1:pos:R:3:forces:R:3 energy=-1.2916539988647593 pbc="F F F"
In       0.00000000       0.00000000       0.00000000       0.00000000       0.00000000       0.85318351
In       0.00000000       0.00000000       3.97373737       0.00000000       0.00000000      -0.85318351
2
Properties=species:S:1:pos:R:3:forces:R:3 energy=-1.2411691774468532 pbc="F F F"
In       0.00000000       0.00000000       0.00000000       0.00000000       0.00000000       0.84053808
In       0.00000000       0.00000000       4.03333333       0.00000000       0.00000000      -0.84053808
2
Properties=species:S:1:pos:R:3:forces:R:3 energy=-1.1915381869338808 pbc="F F F"
In       0.00000000       0.00000000       0.00000000       0.00000000       0.00000000       0.82440960
In       0.00000000       0.00000000       4.09292929       0.00000000       0.00000000      -0.82440960
2
Properties=species:S:1:pos:R:3:forces:R:3 energy=-1.1429837549806017 pbc="F F F"
In       0.00000000       0.00000000       0.00000000       0.00000000       0.00000000       0.80438286
In       0.00000000       0.00000000       4.15252525       0.00000000       0.00000000      -0.80438286
2
Properties=species:S:1:pos:R:3:forces:R:3 energy=-1.0957446926563637 pbc="F F F"
In       0.00000000       0.00000000       0.00000000       0.00000000       0.00000000       0.78027129
In       0.00000000       0.00000000       4.21212121       0.00000000       0.00000000      -0.78027129
2
Properties=species:S:1:pos:R:3:forces:R:3 energy=-1.050061165514258 pbc="F F F"
In       0.00000000       0.00000000       0.00000000       0.00000000       0.00000000       0.75217444
In       0.00000000       0.00000000       4.27171717       0.00000000       0.00000000      -0.75217444
2
Properties=species:S:1:pos:R:3:forces:R:3 energy=-1.0061612094381935 pbc="F F F"
In       0.00000000       0.00000000       0.00000000       0.00000000       0.00000000       0.72056884
In       0.00000000       0.00000000       4.33131313       0.00000000       0.00000000      -0.72056884
2
Properties=species:S:1:pos:R:3:forces:R:3 energy=-0.9642281148148908 pbc="F F F"
In       0.00000000       0.00000000       0.00000000       0.00000000       0.00000000       0.68631369
In       0.00000000       0.00000000       4.39090909       0.00000000       0.00000000      -0.68631369
2
Properties=species:S:1:pos:R:3:forces:R:3 energy=-0.9243864960540689 pbc="F F F"
In       0.00000000       0.00000000       0.00000000       0.00000000       0.00000000       0.65060955
In       0.00000000       0.00000000       4.45050505       0.00000000       0.00000000      -0.65060955
2
Properties=species:S:1:pos:R:3:forces:R:3 energy=-0.8866824438257103 pbc="F F F"
In       0.00000000       0.00000000       0.00000000       0.00000000       0.00000000       0.61481738
In       0.00000000       0.00000000       4.51010101       0.00000000       0.00000000      -0.61481738
2
Properties=species:S:1:pos:R:3:forces:R:3 energy=-0.8510824751831284 pbc="F F F"
In       0.00000000       0.00000000       0.00000000       0.00000000       0.00000000       0.58014649
In       0.00000000       0.00000000       4.56969697       0.00000000       0.00000000      -0.58014649
2
Properties=species:S:1:pos:R:3:forces:R:3 energy=-0.8174949028721006 pbc="F F F"
In       0.00000000       0.00000000       0.00000000       0.00000000       0.00000000       0.54737329
In       0.00000000       0.00000000       4.62929293       0.00000000       0.00000000      -0.54737329
2
Properties=species:S:1:pos:R:3:forces:R:3 energy=-0.7857987075695885 pbc="F F F"
In       0.00000000       0.00000000       0.00000000       0.00000000       0.00000000       0.51668471
In       0.00000000       0.00000000       4.68888889       0.00000000       0.00000000      -0.51668471
2
Properties=species:S:1:pos:R:3:forces:R:3 energy=-0.7558751556879159 pbc="F F F"
In       0.00000000       0.00000000       0.00000000       0.00000000       0.00000000       0.48776025
In       0.00000000       0.00000000       4.74848485       0.00000000       0.00000000      -0.48776025
2
Properties=species:S:1:pos:R:3:forces:R:3 energy=-0.7276362581327744 pbc="F F F"
In       0.00000000       0.00000000       0.00000000       0.00000000       0.00000000       0.46012259
In       0.00000000       0.00000000       4.80808081       0.00000000       0.00000000      -0.46012259
2
Properties=species:S:1:pos:R:3:forces:R:3 energy=-0.7010109400257654 pbc="F F F"
In       0.00000000       0.00000000       0.00000000       0.00000000       0.00000000       0.43357891
In       0.00000000       0.00000000       4.86767677       0.00000000       0.00000000      -0.43357891
2
Properties=species:S:1:pos:R:3:forces:R:3 energy=-0.6759256193416111 pbc="F F F"
In       0.00000000       0.00000000       0.00000000       0.00000000       0.00000000       0.40859842
In       0.00000000       0.00000000       4.92727273       0.00000000       0.00000000      -0.40859842
2
Properties=species:S:1:pos:R:3:forces:R:3 energy=-0.6522559404011519 pbc="F F F"
In       0.00000000       0.00000000       0.00000000       0.00000000       0.00000000       0.38629830
In       0.00000000       0.00000000       4.98686869       0.00000000       0.00000000      -0.38629830
2
Properties=species:S:1:pos:R:3:forces:R:3 energy=-0.629804725320471 pbc="F F F"
In       0.00000000       0.00000000       0.00000000       0.00000000       0.00000000       0.36796170
In       0.00000000       0.00000000       5.04646465       0.00000000       0.00000000      -0.36796170
2
Properties=species:S:1:pos:R:3:forces:R:3 energy=-0.6083116256275747 pbc="F F F"
In       0.00000000       0.00000000       0.00000000       0.00000000       0.00000000       0.35397649
In       0.00000000       0.00000000       5.10606061       0.00000000       0.00000000      -0.35397649
2
Properties=species:S:1:pos:R:3:forces:R:3 energy=-0.5875578793014828 pbc="F F F"
In       0.00000000       0.00000000       0.00000000       0.00000000       0.00000000       0.34251124
In       0.00000000       0.00000000       5.16565657       0.00000000       0.00000000      -0.34251124
2
Properties=species:S:1:pos:R:3:forces:R:3 energy=-0.5675320326915089 pbc="F F F"
In       0.00000000       0.00000000       0.00000000       0.00000000       0.00000000       0.32860449
In       0.00000000       0.00000000       5.22525253       0.00000000       0.00000000      -0.32860449
2
Properties=species:S:1:pos:R:3:forces:R:3 energy=-0.5485738445527036 pbc="F F F"
In       0.00000000       0.00000000       0.00000000       0.00000000       0.00000000       0.30575702
In       0.00000000       0.00000000       5.28484848       0.00000000       0.00000000      -0.30575702
2
Properties=species:S:1:pos:R:3:forces:R:3 energy=-0.5312797889252203 pbc="F F F"
In       0.00000000       0.00000000       0.00000000       0.00000000       0.00000000       0.27397320
In       0.00000000       0.00000000       5.34444444       0.00000000       0.00000000      -0.27397320
2
Properties=species:S:1:pos:R:3:forces:R:3 energy=-0.5157483078600362 pbc="F F F"
In       0.00000000       0.00000000       0.00000000       0.00000000       0.00000000       0.25101119
In       0.00000000       0.00000000       5.40404040       0.00000000       0.00000000      -0.25101119
2
Properties=species:S:1:pos:R:3:forces:R:3 energy=-0.5007803016404234 pbc="F F F"
In       0.00000000       0.00000000       0.00000000       0.00000000       0.00000000       0.25509477
In       0.00000000       0.00000000       5.46363636       0.00000000       0.00000000      -0.25509477
2
Properties=species:S:1:pos:R:3:forces:R:3 energy=-0.4853466652443657 pbc="F F F"
In       0.00000000       0.00000000       0.00000000       0.00000000       0.00000000       0.25892860
In       0.00000000       0.00000000       5.52323232       0.00000000       0.00000000      -0.25892860
2
Properties=species:S:1:pos:R:3:forces:R:3 energy=-0.4706158553781256 pbc="F F F"
In       0.00000000       0.00000000       0.00000000       0.00000000       0.00000000       0.23042412
In       0.00000000       0.00000000       5.58282828       0.00000000       0.00000000      -0.23042412
2
Properties=species:S:1:pos:R:3:forces:R:3 energy=-0.4580526900413341 pbc="F F F"
In       0.00000000       0.00000000       0.00000000       0.00000000       0.00000000       0.19390608
In       0.00000000       0.00000000       5.64242424       0.00000000       0.00000000      -0.19390608
2
Properties=species:S:1:pos:R:3:forces:R:3 energy=-0.4467917797400488 pbc="F F F"
In       0.00000000       0.00000000       0.00000000       0.00000000       0.00000000       0.19110152
In       0.00000000       0.00000000       5.70202020       0.00000000       0.00000000      -0.19110152
2
Properties=species:S:1:pos:R:3:forces:R:3 energy=-0.43476605678034236 pbc="F F F"
In       0.00000000       0.00000000       0.00000000       0.00000000       0.00000000       0.21157481
In       0.00000000       0.00000000       5.76161616       0.00000000       0.00000000      -0.21157481
2
Properties=species:S:1:pos:R:3:forces:R:3 energy=-0.42245729546253774 pbc="F F F"
In       0.00000000       0.00000000       0.00000000       0.00000000       0.00000000       0.19013754
In       0.00000000       0.00000000       5.82121212       0.00000000       0.00000000      -0.19013754
2
Properties=species:S:1:pos:R:3:forces:R:3 energy=-0.4132315678979685 pbc="F F F"
In       0.00000000       0.00000000       0.00000000       0.00000000       0.00000000       0.11553292
In       0.00000000       0.00000000       5.88080808       0.00000000       0.00000000      -0.11553292
2
Properties=species:S:1:pos:R:3:forces:R:3 energy=-0.4086383667676002 pbc="F F F"
In       0.00000000       0.00000000       0.00000000       0.00000000       0.00000000       0.04181897
In       0.00000000       0.00000000       5.94040404       0.00000000       0.00000000      -0.04181897
2
Properties=species:S:1:pos:R:3:forces:R:3 energy=-0.4073230310470351 pbc="F F F"
In       0.00000000       0.00000000       0.00000000       0.00000000       0.00000000       0.01224228
In       0.00000000       0.00000000       6.00000000       0.00000000       0.00000000      -0.01224228
