2
Properties=species:S:1:pos:R:3:forces:R:3 energy=2153.5082938659357 pbc="F F F"
K        0.00000000       0.00000000       0.00000000       0.00000000       0.00000000  -31979.88671875
K        0.00000000       0.00000000       0.18000000       0.00000000       0.00000000   31979.88671875
2
Properties=species:S:1:pos:R:3:forces:R:3 energy=974.4746634948418 pbc="F F F"
K        0.00000000       0.00000000       0.00000000       0.00000000       0.00000000  -11998.62500000
K        0.00000000       0.00000000       0.23878788       0.00000000       0.00000000   11998.62500000
2
Properties=species:S:1:pos:R:3:forces:R:3 energy=498.43709635616995 pbc="F F F"
K        0.00000000       0.00000000       0.00000000       0.00000000       0.00000000   -5277.59716797
K        0.00000000       0.00000000       0.29757576       0.00000000       0.00000000    5277.59716797
2
Properties=species:S:1:pos:R:3:forces:R:3 energy=278.4787833694726 pbc="F F F"
K        0.00000000       0.00000000       0.00000000       0.00000000       0.00000000   -2578.35205078
K        0.00000000       0.00000000       0.35636364       0.00000000       0.00000000    2578.35205078
2
Properties=species:S:1:pos:R:3:forces:R:3 energy=167.29526591341792 pbc="F F F"
K        0.00000000       0.00000000       0.00000000       0.00000000       0.00000000   -1353.73901367
K        0.00000000       0.00000000       0.41515152       0.00000000       0.00000000    1353.73901367
2
Properties=species:S:1:pos:R:3:forces:R:3 energy=107.459145311117 pbc="F F F"
K        0.00000000       0.00000000       0.00000000       0.00000000       0.00000000    -748.96160889
K        0.00000000       0.00000000       0.47393939       0.00000000       0.00000000     748.96160889
2
Properties=species:S:1:pos:R:3:forces:R:3 energy=73.70658183772231 pbc="F F F"
K        0.00000000       0.00000000       0.00000000       0.00000000       0.00000000    -431.89996338
K        0.00000000       0.00000000       0.53272727       0.00000000       0.00000000     431.89996338
2
Properties=species:S:1:pos:R:3:forces:R:3 energy=53.91061092730991 pbc="F F F"
K        0.00000000       0.00000000       0.00000000       0.00000000       0.00000000    -258.38134766
K        0.00000000       0.00000000       0.59151515       0.00000000       0.00000000     258.38134766
2
Properties=species:S:1:pos:R:3:forces:R:3 energy=41.86695935600283 pbc="F F F"
K        0.00000000       0.00000000       0.00000000       0.00000000       0.00000000    -160.42962646
K        0.00000000       0.00000000       0.65030303       0.00000000       0.00000000     160.42962646
2
Properties=species:S:1:pos:R:3:forces:R:3 energy=34.24454192189077 pbc="F F F"
K        0.00000000       0.00000000       0.00000000       0.00000000       0.00000000    -103.98334503
K        0.00000000       0.00000000       0.70909091       0.00000000       0.00000000     103.98334503
2
Properties=species:S:1:pos:R:3:forces:R:3 energy=29.182762921848727 pbc="F F F"
K        0.00000000       0.00000000       0.00000000       0.00000000       0.00000000     -71.18061829
K        0.00000000       0.00000000       0.76787879       0.00000000       0.00000000      71.18061829
2
Properties=species:S:1:pos:R:3:forces:R:3 energy=25.604992723540477 pbc="F F F"
K        0.00000000       0.00000000       0.00000000       0.00000000       0.00000000     -52.31272507
K        0.00000000       0.00000000       0.82666667       0.00000000       0.00000000      52.31272507
2
Properties=species:S:1:pos:R:3:forces:R:3 energy=22.86727419207231 pbc="F F F"
K        0.00000000       0.00000000       0.00000000       0.00000000       0.00000000     -41.92398071
K        0.00000000       0.00000000       0.88545455       0.00000000       0.00000000      41.92398071
2
Properties=species:S:1:pos:R:3:forces:R:3 energy=20.573029495529045 pbc="F F F"
K        0.00000000       0.00000000       0.00000000       0.00000000       0.00000000     -36.81451416
K        0.00000000       0.00000000       0.94424242       0.00000000       0.00000000      36.81451416
2
Properties=species:S:1:pos:R:3:forces:R:3 energy=18.475352362896572 pbc="F F F"
K        0.00000000       0.00000000       0.00000000       0.00000000       0.00000000     -34.95986938
K        0.00000000       0.00000000       1.00303030       0.00000000       0.00000000      34.95986938
2
Properties=species:S:1:pos:R:3:forces:R:3 energy=16.42783280893939 pbc="F F F"
K        0.00000000       0.00000000       0.00000000       0.00000000       0.00000000     -34.88319016
K        0.00000000       0.00000000       1.06181818       0.00000000       0.00000000      34.88319016
2
Properties=species:S:1:pos:R:3:forces:R:3 energy=14.365422628555349 pbc="F F F"
K        0.00000000       0.00000000       0.00000000       0.00000000       0.00000000     -35.23601532
K        0.00000000       0.00000000       1.12060606       0.00000000       0.00000000      35.23601532
2
Properties=species:S:1:pos:R:3:forces:R:3 energy=12.304623254776875 pbc="F F F"
K        0.00000000       0.00000000       0.00000000       0.00000000       0.00000000     -34.59780884
K        0.00000000       0.00000000       1.17939394       0.00000000       0.00000000      34.59780884
2
Properties=species:S:1:pos:R:3:forces:R:3 energy=10.334695761603571 pbc="F F F"
K        0.00000000       0.00000000       0.00000000       0.00000000       0.00000000     -32.13615036
K        0.00000000       0.00000000       1.23818182       0.00000000       0.00000000      32.13615036
2
Properties=species:S:1:pos:R:3:forces:R:3 energy=8.546954475918719 pbc="F F F"
K        0.00000000       0.00000000       0.00000000       0.00000000       0.00000000     -28.59952927
K        0.00000000       0.00000000       1.29696970       0.00000000       0.00000000      28.59952927
2
Properties=species:S:1:pos:R:3:forces:R:3 energy=6.9810446101526615 pbc="F F F"
K        0.00000000       0.00000000       0.00000000       0.00000000       0.00000000     -24.57316589
K        0.00000000       0.00000000       1.35575758       0.00000000       0.00000000      24.57316589
2
Properties=species:S:1:pos:R:3:forces:R:3 energy=5.669197042098489 pbc="F F F"
K        0.00000000       0.00000000       0.00000000       0.00000000       0.00000000     -20.00284386
K        0.00000000       0.00000000       1.41454545       0.00000000       0.00000000      20.00284386
2
Properties=species:S:1:pos:R:3:forces:R:3 energy=4.626451236316772 pbc="F F F"
K        0.00000000       0.00000000       0.00000000       0.00000000       0.00000000     -15.56850529
K        0.00000000       0.00000000       1.47333333       0.00000000       0.00000000      15.56850529
2
Properties=species:S:1:pos:R:3:forces:R:3 energy=3.8220226143843163 pbc="F F F"
K        0.00000000       0.00000000       0.00000000       0.00000000       0.00000000     -11.96299171
K        0.00000000       0.00000000       1.53212121       0.00000000       0.00000000      11.96299171
2
Properties=species:S:1:pos:R:3:forces:R:3 energy=3.201464272325657 pbc="F F F"
K        0.00000000       0.00000000       0.00000000       0.00000000       0.00000000      -9.28269005
K        0.00000000       0.00000000       1.59090909       0.00000000       0.00000000       9.28269005
2
Properties=species:S:1:pos:R:3:forces:R:3 energy=2.7195327464914514 pbc="F F F"
K        0.00000000       0.00000000       0.00000000       0.00000000       0.00000000      -7.16275835
K        0.00000000       0.00000000       1.64969697       0.00000000       0.00000000       7.16275835
2
Properties=species:S:1:pos:R:3:forces:R:3 energy=2.357197503911679 pbc="F F F"
K        0.00000000       0.00000000       0.00000000       0.00000000       0.00000000      -5.17480755
K        0.00000000       0.00000000       1.70848485       0.00000000       0.00000000       5.17480755
2
Properties=species:S:1:pos:R:3:forces:R:3 energy=2.104879648851108 pbc="F F F"
K        0.00000000       0.00000000       0.00000000       0.00000000       0.00000000      -3.52460742
K        0.00000000       0.00000000       1.76727273       0.00000000       0.00000000       3.52460742
2
Properties=species:S:1:pos:R:3:forces:R:3 energy=1.9241384084399007 pbc="F F F"
K        0.00000000       0.00000000       0.00000000       0.00000000       0.00000000      -2.78925776
K        0.00000000       0.00000000       1.82606061       0.00000000       0.00000000       2.78925776
2
Properties=species:S:1:pos:R:3:forces:R:3 energy=1.762101900346536 pbc="F F F"
K        0.00000000       0.00000000       0.00000000       0.00000000       0.00000000      -2.80121803
K        0.00000000       0.00000000       1.88484848       0.00000000       0.00000000       2.80121803
2
Properties=species:S:1:pos:R:3:forces:R:3 energy=1.5902212351779208 pbc="F F F"
K        0.00000000       0.00000000       0.00000000       0.00000000       0.00000000      -3.05751204
K        0.00000000       0.00000000       1.94363636       0.00000000       0.00000000       3.05751204
2
Properties=species:S:1:pos:R:3:forces:R:3 energy=1.4028962717894475 pbc="F F F"
K        0.00000000       0.00000000       0.00000000       0.00000000       0.00000000      -3.30527139
K        0.00000000       0.00000000       2.00242424       0.00000000       0.00000000       3.30527139
2
Properties=species:S:1:pos:R:3:forces:R:3 energy=1.203109708969053 pbc="F F F"
K        0.00000000       0.00000000       0.00000000       0.00000000       0.00000000      -3.47737312
K        0.00000000       0.00000000       2.06121212       0.00000000       0.00000000       3.47737312
2
Properties=species:S:1:pos:R:3:forces:R:3 energy=0.9958016683747414 pbc="F F F"
K        0.00000000       0.00000000       0.00000000       0.00000000       0.00000000      -3.55953550
K        0.00000000       0.00000000       2.12000000       0.00000000       0.00000000       3.55953550
2
Properties=species:S:1:pos:R:3:forces:R:3 energy=0.786571514874844 pbc="F F F"
K        0.00000000       0.00000000       0.00000000       0.00000000       0.00000000      -3.54117918
K        0.00000000       0.00000000       2.17878788       0.00000000       0.00000000       3.54117918
2
Properties=species:S:1:pos:R:3:forces:R:3 energy=0.5814525383194787 pbc="F F F"
K        0.00000000       0.00000000       0.00000000       0.00000000       0.00000000      -3.42119265
K        0.00000000       0.00000000       2.23757576       0.00000000       0.00000000       3.42119265
2
Properties=species:S:1:pos:R:3:forces:R:3 energy=0.3859288173985918 pbc="F F F"
K        0.00000000       0.00000000       0.00000000       0.00000000       0.00000000      -3.21949458
K        0.00000000       0.00000000       2.29636364       0.00000000       0.00000000       3.21949458
2
Properties=species:S:1:pos:R:3:forces:R:3 energy=0.20391359603050666 pbc="F F F"
K        0.00000000       0.00000000       0.00000000       0.00000000       0.00000000      -2.96679449
K        0.00000000       0.00000000       2.35515152       0.00000000       0.00000000       2.96679449
2
Properties=species:S:1:pos:R:3:forces:R:3 energy=0.037569448229082064 pbc="F F F"
K        0.00000000       0.00000000       0.00000000       0.00000000       0.00000000      -2.69017649
K        0.00000000       0.00000000       2.41393939       0.00000000       0.00000000       2.69017649
2
Properties=species:S:1:pos:R:3:forces:R:3 energy=-0.11229270335357272 pbc="F F F"
K        0.00000000       0.00000000       0.00000000       0.00000000       0.00000000      -2.40857673
K        0.00000000       0.00000000       2.47272727       0.00000000       0.00000000       2.40857673
2
Properties=species:S:1:pos:R:3:forces:R:3 energy=-0.24576790132335719 pbc="F F F"
K        0.00000000       0.00000000       0.00000000       0.00000000       0.00000000      -2.13430738
K        0.00000000       0.00000000       2.53151515       0.00000000       0.00000000       2.13430738
2
Properties=species:S:1:pos:R:3:forces:R:3 energy=-0.36353325398491465 pbc="F F F"
K        0.00000000       0.00000000       0.00000000       0.00000000       0.00000000      -1.87514997
K        0.00000000       0.00000000       2.59030303       0.00000000       0.00000000       1.87514997
2
Properties=species:S:1:pos:R:3:forces:R:3 energy=-0.46662551802580704 pbc="F F F"
K        0.00000000       0.00000000       0.00000000       0.00000000       0.00000000      -1.63562155
K        0.00000000       0.00000000       2.64909091       0.00000000       0.00000000       1.63562155
2
Properties=species:S:1:pos:R:3:forces:R:3 energy=-0.5562761468298558 pbc="F F F"
K        0.00000000       0.00000000       0.00000000       0.00000000       0.00000000      -1.41815960
K        0.00000000       0.00000000       2.70787879       0.00000000       0.00000000       1.41815960
2
Properties=species:S:1:pos:R:3:forces:R:3 energy=-0.6338308698481285 pbc="F F F"
K        0.00000000       0.00000000       0.00000000       0.00000000       0.00000000      -1.22434080
K        0.00000000       0.00000000       2.76666667       0.00000000       0.00000000       1.22434080
2
Properties=species:S:1:pos:R:3:forces:R:3 energy=-0.7007173963849372 pbc="F F F"
K        0.00000000       0.00000000       0.00000000       0.00000000       0.00000000      -1.05535650
K        0.00000000       0.00000000       2.82545455       0.00000000       0.00000000       1.05535650
2
Properties=species:S:1:pos:R:3:forces:R:3 energy=-0.7584050081084254 pbc="F F F"
K        0.00000000       0.00000000       0.00000000       0.00000000       0.00000000      -0.91132015
K        0.00000000       0.00000000       2.88424242       0.00000000       0.00000000       0.91132015
2
Properties=species:S:1:pos:R:3:forces:R:3 energy=-0.8083220826452859 pbc="F F F"
K        0.00000000       0.00000000       0.00000000       0.00000000       0.00000000      -0.79047823
K        0.00000000       0.00000000       2.94303030       0.00000000       0.00000000       0.79047823
2
Properties=species:S:1:pos:R:3:forces:R:3 energy=-0.851734443084621 pbc="F F F"
K        0.00000000       0.00000000       0.00000000       0.00000000       0.00000000      -0.68940568
K        0.00000000       0.00000000       3.00181818       0.00000000       0.00000000       0.68940568
2
Properties=species:S:1:pos:R:3:forces:R:3 energy=-0.8896903238838805 pbc="F F F"
K        0.00000000       0.00000000       0.00000000       0.00000000       0.00000000      -0.60424644
K        0.00000000       0.00000000       3.06060606       0.00000000       0.00000000       0.60424644
2
Properties=species:S:1:pos:R:3:forces:R:3 energy=-0.9230309879992297 pbc="F F F"
K        0.00000000       0.00000000       0.00000000       0.00000000       0.00000000      -0.53201264
K        0.00000000       0.00000000       3.11939394       0.00000000       0.00000000       0.53201264
2
Properties=species:S:1:pos:R:3:forces:R:3 energy=-0.9524623362385485 pbc="F F F"
K        0.00000000       0.00000000       0.00000000       0.00000000       0.00000000      -0.47108081
K        0.00000000       0.00000000       3.17818182       0.00000000       0.00000000       0.47108081
2
Properties=species:S:1:pos:R:3:forces:R:3 energy=-0.9786248995374852 pbc="F F F"
K        0.00000000       0.00000000       0.00000000       0.00000000       0.00000000      -0.42065653
K        0.00000000       0.00000000       3.23696970       0.00000000       0.00000000       0.42065653
2
Properties=species:S:1:pos:R:3:forces:R:3 energy=-1.0021077163382874 pbc="F F F"
K        0.00000000       0.00000000       0.00000000       0.00000000       0.00000000      -0.37969658
K        0.00000000       0.00000000       3.29575758       0.00000000       0.00000000       0.37969658
2
Properties=species:S:1:pos:R:3:forces:R:3 energy=-1.023412401492404 pbc="F F F"
K        0.00000000       0.00000000       0.00000000       0.00000000       0.00000000      -0.34608510
K        0.00000000       0.00000000       3.35454545       0.00000000       0.00000000       0.34608510
2
Properties=species:S:1:pos:R:3:forces:R:3 energy=-1.0428791533056698 pbc="F F F"
K        0.00000000       0.00000000       0.00000000       0.00000000       0.00000000      -0.31651610
K        0.00000000       0.00000000       3.41333333       0.00000000       0.00000000       0.31651610
2
Properties=species:S:1:pos:R:3:forces:R:3 energy=-1.0606320269709353 pbc="F F F"
K        0.00000000       0.00000000       0.00000000       0.00000000       0.00000000      -0.28717169
K        0.00000000       0.00000000       3.47212121       0.00000000       0.00000000       0.28717169
2
Properties=species:S:1:pos:R:3:forces:R:3 energy=-1.0765822640926594 pbc="F F F"
K        0.00000000       0.00000000       0.00000000       0.00000000       0.00000000      -0.25476629
K        0.00000000       0.00000000       3.53090909       0.00000000       0.00000000       0.25476629
2
Properties=species:S:1:pos:R:3:forces:R:3 energy=-1.0904890842568895 pbc="F F F"
K        0.00000000       0.00000000       0.00000000       0.00000000       0.00000000      -0.21747759
K        0.00000000       0.00000000       3.58969697       0.00000000       0.00000000       0.21747759
2
Properties=species:S:1:pos:R:3:forces:R:3 energy=-1.1020570960278848 pbc="F F F"
K        0.00000000       0.00000000       0.00000000       0.00000000       0.00000000      -0.17536768
K        0.00000000       0.00000000       3.64848485       0.00000000       0.00000000       0.17536768
2
Properties=species:S:1:pos:R:3:forces:R:3 energy=-1.1110458906349856 pbc="F F F"
K        0.00000000       0.00000000       0.00000000       0.00000000       0.00000000      -0.13014340
K        0.00000000       0.00000000       3.70727273       0.00000000       0.00000000       0.13014340
2
Properties=species:S:1:pos:R:3:forces:R:3 energy=-1.117347624213437 pbc="F F F"
K        0.00000000       0.00000000       0.00000000       0.00000000       0.00000000      -0.08436831
K        0.00000000       0.00000000       3.76606061       0.00000000       0.00000000       0.08436831
2
Properties=species:S:1:pos:R:3:forces:R:3 energy=-1.1210038353217981 pbc="F F F"
K        0.00000000       0.00000000       0.00000000       0.00000000       0.00000000      -0.04049303
K        0.00000000       0.00000000       3.82484848       0.00000000       0.00000000       0.04049303
2
Properties=species:S:1:pos:R:3:forces:R:3 energy=-1.1221782247143042 pbc="F F F"
K        0.00000000       0.00000000       0.00000000       0.00000000       0.00000000      -0.00013645
K        0.00000000       0.00000000       3.88363636       0.00000000       0.00000000       0.00013645
2
Properties=species:S:1:pos:R:3:forces:R:3 energy=-1.1211012362846582 pbc="F F F"
K        0.00000000       0.00000000       0.00000000       0.00000000       0.00000000       0.03606271
K        0.00000000       0.00000000       3.94242424       0.00000000       0.00000000      -0.03606271
2
Properties=species:S:1:pos:R:3:forces:R:3 energy=-1.1180195916190738 pbc="F F F"
K        0.00000000       0.00000000       0.00000000       0.00000000       0.00000000       0.06813007
K        0.00000000       0.00000000       4.00121212       0.00000000       0.00000000      -0.06813007
2
Properties=species:S:1:pos:R:3:forces:R:3 energy=-1.1131680460026094 pbc="F F F"
K        0.00000000       0.00000000       0.00000000       0.00000000       0.00000000       0.09627198
K        0.00000000       0.00000000       4.06000000       0.00000000       0.00000000      -0.09627198
2
Properties=species:S:1:pos:R:3:forces:R:3 energy=-1.1067752343788335 pbc="F F F"
K        0.00000000       0.00000000       0.00000000       0.00000000       0.00000000       0.12056468
K        0.00000000       0.00000000       4.11878788       0.00000000       0.00000000      -0.12056468
2
Properties=species:S:1:pos:R:3:forces:R:3 energy=-1.0990703081134088 pbc="F F F"
K        0.00000000       0.00000000       0.00000000       0.00000000       0.00000000       0.14087865
K        0.00000000       0.00000000       4.17757576       0.00000000       0.00000000      -0.14087865
2
Properties=species:S:1:pos:R:3:forces:R:3 energy=-1.0902956671433726 pbc="F F F"
K        0.00000000       0.00000000       0.00000000       0.00000000       0.00000000       0.15687953
K        0.00000000       0.00000000       4.23636364       0.00000000       0.00000000      -0.15687953
2
Properties=species:S:1:pos:R:3:forces:R:3 energy=-1.080721198554777 pbc="F F F"
K        0.00000000       0.00000000       0.00000000       0.00000000       0.00000000       0.16795629
K        0.00000000       0.00000000       4.29515152       0.00000000       0.00000000      -0.16795629
2
Properties=species:S:1:pos:R:3:forces:R:3 energy=-1.070666571956488 pbc="F F F"
K        0.00000000       0.00000000       0.00000000       0.00000000       0.00000000       0.17299651
K        0.00000000       0.00000000       4.35393939       0.00000000       0.00000000      -0.17299651
2
Properties=species:S:1:pos:R:3:forces:R:3 energy=-1.060534743024702 pbc="F F F"
K        0.00000000       0.00000000       0.00000000       0.00000000       0.00000000       0.17016600
K        0.00000000       0.00000000       4.41272727       0.00000000       0.00000000      -0.17016600
2
Properties=species:S:1:pos:R:3:forces:R:3 energy=-1.050859064216901 pbc="F F F"
K        0.00000000       0.00000000       0.00000000       0.00000000       0.00000000       0.15713373
K        0.00000000       0.00000000       4.47151515       0.00000000       0.00000000      -0.15713373
2
Properties=species:S:1:pos:R:3:forces:R:3 energy=-1.042286405863454 pbc="F F F"
K        0.00000000       0.00000000       0.00000000       0.00000000       0.00000000       0.13267352
K        0.00000000       0.00000000       4.53030303       0.00000000       0.00000000      -0.13267352
2
Properties=species:S:1:pos:R:3:forces:R:3 energy=-1.0354220584401435 pbc="F F F"
K        0.00000000       0.00000000       0.00000000       0.00000000       0.00000000       0.10024373
K        0.00000000       0.00000000       4.58909091       0.00000000       0.00000000      -0.10024373
2
Properties=species:S:1:pos:R:3:forces:R:3 energy=-1.030433041605647 pbc="F F F"
K        0.00000000       0.00000000       0.00000000       0.00000000       0.00000000       0.07151653
K        0.00000000       0.00000000       4.64787879       0.00000000       0.00000000      -0.07151653
2
Properties=species:S:1:pos:R:3:forces:R:3 energy=-1.0265951109910987 pbc="F F F"
K        0.00000000       0.00000000       0.00000000       0.00000000       0.00000000       0.06393999
K        0.00000000       0.00000000       4.70666667       0.00000000       0.00000000      -0.06393999
2
Properties=species:S:1:pos:R:3:forces:R:3 energy=-1.022243987656428 pbc="F F F"
K        0.00000000       0.00000000       0.00000000       0.00000000       0.00000000       0.09009206
K        0.00000000       0.00000000       4.76545455       0.00000000       0.00000000      -0.09009206
2
Properties=species:S:1:pos:R:3:forces:R:3 energy=-1.0153606847024583 pbc="F F F"
K        0.00000000       0.00000000       0.00000000       0.00000000       0.00000000       0.14860463
K        0.00000000       0.00000000       4.82424242       0.00000000       0.00000000      -0.14860463
2
Properties=species:S:1:pos:R:3:forces:R:3 energy=-1.0043838523370479 pbc="F F F"
K        0.00000000       0.00000000       0.00000000       0.00000000       0.00000000       0.22696072
K        0.00000000       0.00000000       4.88303030       0.00000000       0.00000000      -0.22696072
2
Properties=species:S:1:pos:R:3:forces:R:3 energy=-0.9885564797628457 pbc="F F F"
K        0.00000000       0.00000000       0.00000000       0.00000000       0.00000000       0.31158239
K        0.00000000       0.00000000       4.94181818       0.00000000       0.00000000      -0.31158239
2
Properties=species:S:1:pos:R:3:forces:R:3 energy=-0.9677884053540055 pbc="F F F"
K        0.00000000       0.00000000       0.00000000       0.00000000       0.00000000       0.39423975
K        0.00000000       0.00000000       5.00060606       0.00000000       0.00000000      -0.39423975
2
Properties=species:S:1:pos:R:3:forces:R:3 energy=-0.94230440360705 pbc="F F F"
K        0.00000000       0.00000000       0.00000000       0.00000000       0.00000000       0.47173005
K        0.00000000       0.00000000       5.05939394       0.00000000       0.00000000      -0.47173005
2
Properties=species:S:1:pos:R:3:forces:R:3 energy=-0.9124684205603976 pbc="F F F"
K        0.00000000       0.00000000       0.00000000       0.00000000       0.00000000       0.54171777
K        0.00000000       0.00000000       5.11818182       0.00000000       0.00000000      -0.54171777
2
Properties=species:S:1:pos:R:3:forces:R:3 energy=-0.8788773059431663 pbc="F F F"
K        0.00000000       0.00000000       0.00000000       0.00000000       0.00000000       0.59802723
K        0.00000000       0.00000000       5.17696970       0.00000000       0.00000000      -0.59802723
2
Properties=species:S:1:pos:R:3:forces:R:3 energy=-0.8426601120553778 pbc="F F F"
K        0.00000000       0.00000000       0.00000000       0.00000000       0.00000000       0.62872338
K        0.00000000       0.00000000       5.23575758       0.00000000       0.00000000      -0.62872338
2
Properties=species:S:1:pos:R:3:forces:R:3 energy=-0.8056797725268353 pbc="F F F"
K        0.00000000       0.00000000       0.00000000       0.00000000       0.00000000       0.62336332
K        0.00000000       0.00000000       5.29454545       0.00000000       0.00000000      -0.62336332
2
Properties=species:S:1:pos:R:3:forces:R:3 energy=-0.7698257455297567 pbc="F F F"
K        0.00000000       0.00000000       0.00000000       0.00000000       0.00000000       0.59614885
K        0.00000000       0.00000000       5.35333333       0.00000000       0.00000000      -0.59614885
2
Properties=species:S:1:pos:R:3:forces:R:3 energy=-0.7350104684759043 pbc="F F F"
K        0.00000000       0.00000000       0.00000000       0.00000000       0.00000000       0.59718668
K        0.00000000       0.00000000       5.41212121       0.00000000       0.00000000      -0.59718668
2
Properties=species:S:1:pos:R:3:forces:R:3 energy=-0.6986816757754953 pbc="F F F"
K        0.00000000       0.00000000       0.00000000       0.00000000       0.00000000       0.64120919
K        0.00000000       0.00000000       5.47090909       0.00000000       0.00000000      -0.64120919
2
Properties=species:S:1:pos:R:3:forces:R:3 energy=-0.6603587289630596 pbc="F F F"
K        0.00000000       0.00000000       0.00000000       0.00000000       0.00000000       0.64945352
K        0.00000000       0.00000000       5.52969697       0.00000000       0.00000000      -0.64945352
2
Properties=species:S:1:pos:R:3:forces:R:3 energy=-0.6238430850286583 pbc="F F F"
K        0.00000000       0.00000000       0.00000000       0.00000000       0.00000000       0.58461571
K        0.00000000       0.00000000       5.58848485       0.00000000       0.00000000      -0.58461571
2
Properties=species:S:1:pos:R:3:forces:R:3 energy=-0.5915744845845968 pbc="F F F"
K        0.00000000       0.00000000       0.00000000       0.00000000       0.00000000       0.52287114
K        0.00000000       0.00000000       5.64727273       0.00000000       0.00000000      -0.52287114
2
Properties=species:S:1:pos:R:3:forces:R:3 energy=-0.5604994092600737 pbc="F F F"
K        0.00000000       0.00000000       0.00000000       0.00000000       0.00000000       0.55171192
K        0.00000000       0.00000000       5.70606061       0.00000000       0.00000000      -0.55171192
2
Properties=species:S:1:pos:R:3:forces:R:3 energy=-0.5257760818543357 pbc="F F F"
K        0.00000000       0.00000000       0.00000000       0.00000000       0.00000000       0.61968303
K        0.00000000       0.00000000       5.76484848       0.00000000       0.00000000      -0.61968303
2
Properties=species:S:1:pos:R:3:forces:R:3 energy=-0.490299582735574 pbc="F F F"
K        0.00000000       0.00000000       0.00000000       0.00000000       0.00000000       0.55874217
K        0.00000000       0.00000000       5.82363636       0.00000000       0.00000000      -0.55874217
2
Properties=species:S:1:pos:R:3:forces:R:3 energy=-0.46313714314453347 pbc="F F F"
K        0.00000000       0.00000000       0.00000000       0.00000000       0.00000000       0.35330504
K        0.00000000       0.00000000       5.88242424       0.00000000       0.00000000      -0.35330504
2
Properties=species:S:1:pos:R:3:forces:R:3 energy=-0.4487174308281899 pbc="F F F"
K        0.00000000       0.00000000       0.00000000       0.00000000       0.00000000       0.14809413
K        0.00000000       0.00000000       5.94121212       0.00000000       0.00000000      -0.14809413
2
Properties=species:S:1:pos:R:3:forces:R:3 energy=-0.44321893960223724 pbc="F F F"
K        0.00000000       0.00000000       0.00000000       0.00000000       0.00000000       0.06572454
K        0.00000000       0.00000000       6.00000000       0.00000000       0.00000000      -0.06572454
