2
Properties=species:S:1:pos:R:3:forces:R:3 energy=8872.260979412811 pbc="F F F"
K        0.00000000       0.00000000       0.00000000       0.00000000       0.00000000 -191288.40625000
K        0.00000000       0.00000000       0.10000000       0.00000000       0.00000000  191288.40625000
2
Properties=species:S:1:pos:R:3:forces:R:3 energy=2950.6237723815607 pbc="F F F"
K        0.00000000       0.00000000       0.00000000       0.00000000       0.00000000  -47372.21875000
K        0.00000000       0.00000000       0.15959596       0.00000000       0.00000000   47372.21875000
2
Properties=species:S:1:pos:R:3:forces:R:3 energy=1249.0534598815607 pbc="F F F"
K        0.00000000       0.00000000       0.00000000       0.00000000       0.00000000  -16286.98535156
K        0.00000000       0.00000000       0.21919192       0.00000000       0.00000000   16286.98535156
2
Properties=species:S:1:pos:R:3:forces:R:3 energy=610.9235770690606 pbc="F F F"
K        0.00000000       0.00000000       0.00000000       0.00000000       0.00000000   -6769.87158203
K        0.00000000       0.00000000       0.27878788       0.00000000       0.00000000    6769.87158203
2
Properties=species:S:1:pos:R:3:forces:R:3 energy=330.0398490433007 pbc="F F F"
K        0.00000000       0.00000000       0.00000000       0.00000000       0.00000000   -3181.55957031
K        0.00000000       0.00000000       0.33838384       0.00000000       0.00000000    3181.55957031
2
Properties=species:S:1:pos:R:3:forces:R:3 energy=192.78267741244136 pbc="F F F"
K        0.00000000       0.00000000       0.00000000       0.00000000       0.00000000   -1624.12927246
K        0.00000000       0.00000000       0.39797980       0.00000000       0.00000000    1624.12927246
2
Properties=species:S:1:pos:R:3:forces:R:3 energy=120.74796366890808 pbc="F F F"
K        0.00000000       0.00000000       0.00000000       0.00000000       0.00000000    -879.14880371
K        0.00000000       0.00000000       0.45757576       0.00000000       0.00000000     879.14880371
2
Properties=species:S:1:pos:R:3:forces:R:3 energy=80.92388988057199 pbc="F F F"
K        0.00000000       0.00000000       0.00000000       0.00000000       0.00000000    -497.79318237
K        0.00000000       0.00000000       0.51717172       0.00000000       0.00000000     497.79318237
2
Properties=species:S:1:pos:R:3:forces:R:3 energy=57.969723472970216 pbc="F F F"
K        0.00000000       0.00000000       0.00000000       0.00000000       0.00000000    -292.92834473
K        0.00000000       0.00000000       0.57676768       0.00000000       0.00000000     292.92834473
2
Properties=species:S:1:pos:R:3:forces:R:3 energy=44.22972943340142 pbc="F F F"
K        0.00000000       0.00000000       0.00000000       0.00000000       0.00000000    -178.98176575
K        0.00000000       0.00000000       0.63636364       0.00000000       0.00000000     178.98176575
2
Properties=species:S:1:pos:R:3:forces:R:3 energy=35.674904618555054 pbc="F F F"
K        0.00000000       0.00000000       0.00000000       0.00000000       0.00000000    -114.07505798
K        0.00000000       0.00000000       0.69595960       0.00000000       0.00000000     114.07505798
2
Properties=species:S:1:pos:R:3:forces:R:3 energy=30.09301071824746 pbc="F F F"
K        0.00000000       0.00000000       0.00000000       0.00000000       0.00000000     -76.65961456
K        0.00000000       0.00000000       0.75555556       0.00000000       0.00000000      76.65961456
2
Properties=species:S:1:pos:R:3:forces:R:3 energy=26.22374042838647 pbc="F F F"
K        0.00000000       0.00000000       0.00000000       0.00000000       0.00000000     -55.21028519
K        0.00000000       0.00000000       0.81515152       0.00000000       0.00000000      55.21028519
2
Properties=species:S:1:pos:R:3:forces:R:3 energy=23.323609250317865 pbc="F F F"
K        0.00000000       0.00000000       0.00000000       0.00000000       0.00000000     -43.34932327
K        0.00000000       0.00000000       0.87474747       0.00000000       0.00000000      43.34932327
2
Properties=species:S:1:pos:R:3:forces:R:3 energy=20.940293276803068 pbc="F F F"
K        0.00000000       0.00000000       0.00000000       0.00000000       0.00000000     -37.40127182
K        0.00000000       0.00000000       0.93434343       0.00000000       0.00000000      37.40127182
2
Properties=species:S:1:pos:R:3:forces:R:3 energy=18.7937670335839 pbc="F F F"
K        0.00000000       0.00000000       0.00000000       0.00000000       0.00000000     -35.09660721
K        0.00000000       0.00000000       0.99393939       0.00000000       0.00000000      35.09660721
2
Properties=species:S:1:pos:R:3:forces:R:3 energy=16.716574855362143 pbc="F F F"
K        0.00000000       0.00000000       0.00000000       0.00000000       0.00000000     -34.83624649
K        0.00000000       0.00000000       1.05353535       0.00000000       0.00000000      34.83624649
2
Properties=species:S:1:pos:R:3:forces:R:3 energy=14.628730174623904 pbc="F F F"
K        0.00000000       0.00000000       0.00000000       0.00000000       0.00000000     -35.21664429
K        0.00000000       0.00000000       1.11313131       0.00000000       0.00000000      35.21664429
2
Properties=species:S:1:pos:R:3:forces:R:3 energy=12.535842519537397 pbc="F F F"
K        0.00000000       0.00000000       0.00000000       0.00000000       0.00000000     -34.75957108
K        0.00000000       0.00000000       1.17272727       0.00000000       0.00000000      34.75957108
2
Properties=species:S:1:pos:R:3:forces:R:3 energy=10.523889455511288 pbc="F F F"
K        0.00000000       0.00000000       0.00000000       0.00000000       0.00000000     -32.45074081
K        0.00000000       0.00000000       1.23232323       0.00000000       0.00000000      32.45074081
2
Properties=species:S:1:pos:R:3:forces:R:3 energy=8.692207620946284 pbc="F F F"
K        0.00000000       0.00000000       0.00000000       0.00000000       0.00000000     -28.92073631
K        0.00000000       0.00000000       1.29191919       0.00000000       0.00000000      28.92073631
2
Properties=species:S:1:pos:R:3:forces:R:3 energy=7.085959714198122 pbc="F F F"
K        0.00000000       0.00000000       0.00000000       0.00000000       0.00000000     -24.88512230
K        0.00000000       0.00000000       1.35151515       0.00000000       0.00000000      24.88512230
2
Properties=species:S:1:pos:R:3:forces:R:3 energy=5.738365570158183 pbc="F F F"
K        0.00000000       0.00000000       0.00000000       0.00000000       0.00000000     -20.27510262
K        0.00000000       0.00000000       1.41111111       0.00000000       0.00000000      20.27510262
2
Properties=species:S:1:pos:R:3:forces:R:3 energy=4.667585080502052 pbc="F F F"
K        0.00000000       0.00000000       0.00000000       0.00000000       0.00000000     -15.75199795
K        0.00000000       0.00000000       1.47070707       0.00000000       0.00000000      15.75199795
2
Properties=species:S:1:pos:R:3:forces:R:3 energy=3.8438607708774817 pbc="F F F"
K        0.00000000       0.00000000       0.00000000       0.00000000       0.00000000     -12.05967236
K        0.00000000       0.00000000       1.53030303       0.00000000       0.00000000      12.05967236
2
Properties=species:S:1:pos:R:3:forces:R:3 energy=3.210858420588573 pbc="F F F"
K        0.00000000       0.00000000       0.00000000       0.00000000       0.00000000      -9.32254219
K        0.00000000       0.00000000       1.58989899       0.00000000       0.00000000       9.32254219
2
Properties=species:S:1:pos:R:3:forces:R:3 energy=2.7209820866981653 pbc="F F F"
K        0.00000000       0.00000000       0.00000000       0.00000000       0.00000000      -7.16966152
K        0.00000000       0.00000000       1.64949495       0.00000000       0.00000000       7.16966152
2
Properties=species:S:1:pos:R:3:forces:R:3 energy=2.354066848556429 pbc="F F F"
K        0.00000000       0.00000000       0.00000000       0.00000000       0.00000000      -5.15494061
K        0.00000000       0.00000000       1.70909091       0.00000000       0.00000000       5.15494061
2
Properties=species:S:1:pos:R:3:forces:R:3 energy=2.0999155863007886 pbc="F F F"
K        0.00000000       0.00000000       0.00000000       0.00000000       0.00000000      -3.49498606
K        0.00000000       0.00000000       1.76868687       0.00000000       0.00000000       3.49498606
2
Properties=species:S:1:pos:R:3:forces:R:3 energy=1.9179501124193161 pbc="F F F"
K        0.00000000       0.00000000       0.00000000       0.00000000       0.00000000      -2.77955270
K        0.00000000       0.00000000       1.82828283       0.00000000       0.00000000       2.77955270
2
Properties=species:S:1:pos:R:3:forces:R:3 energy=1.7535971880161103 pbc="F F F"
K        0.00000000       0.00000000       0.00000000       0.00000000       0.00000000      -2.81184793
K        0.00000000       0.00000000       1.88787879       0.00000000       0.00000000       2.81184793
2
Properties=species:S:1:pos:R:3:forces:R:3 energy=1.5784499098814886 pbc="F F F"
K        0.00000000       0.00000000       0.00000000       0.00000000       0.00000000      -3.07526779
K        0.00000000       0.00000000       1.94747475       0.00000000       0.00000000       3.07526779
2
Properties=species:S:1:pos:R:3:forces:R:3 energy=1.387500842290668 pbc="F F F"
K        0.00000000       0.00000000       0.00000000       0.00000000       0.00000000      -3.32192421
K        0.00000000       0.00000000       2.00707071       0.00000000       0.00000000       3.32192421
2
Properties=species:S:1:pos:R:3:forces:R:3 energy=1.184111539073333 pbc="F F F"
K        0.00000000       0.00000000       0.00000000       0.00000000       0.00000000      -3.48893285
K        0.00000000       0.00000000       2.06666667       0.00000000       0.00000000       3.48893285
2
Properties=species:S:1:pos:R:3:forces:R:3 energy=0.9735003642888546 pbc="F F F"
K        0.00000000       0.00000000       0.00000000       0.00000000       0.00000000      -3.56253362
K        0.00000000       0.00000000       2.12626263       0.00000000       0.00000000       3.56253362
2
Properties=species:S:1:pos:R:3:forces:R:3 energy=0.7615627970968969 pbc="F F F"
K        0.00000000       0.00000000       0.00000000       0.00000000       0.00000000      -3.53192163
K        0.00000000       0.00000000       2.18585859       0.00000000       0.00000000       3.53192163
2
Properties=species:S:1:pos:R:3:forces:R:3 energy=0.5545870094799265 pbc="F F F"
K        0.00000000       0.00000000       0.00000000       0.00000000       0.00000000      -3.39826345
K        0.00000000       0.00000000       2.24545455       0.00000000       0.00000000       3.39826345
2
Properties=species:S:1:pos:R:3:forces:R:3 energy=0.358111561941036 pbc="F F F"
K        0.00000000       0.00000000       0.00000000       0.00000000       0.00000000      -3.18463111
K        0.00000000       0.00000000       2.30505051       0.00000000       0.00000000       3.18463111
2
Properties=species:S:1:pos:R:3:forces:R:3 energy=0.17595147469569244 pbc="F F F"
K        0.00000000       0.00000000       0.00000000       0.00000000       0.00000000      -2.92314768
K        0.00000000       0.00000000       2.36464646       0.00000000       0.00000000       2.92314768
2
Properties=species:S:1:pos:R:3:forces:R:3 energy=0.010106378498049424 pbc="F F F"
K        0.00000000       0.00000000       0.00000000       0.00000000       0.00000000      -2.64076567
K        0.00000000       0.00000000       2.42424242       0.00000000       0.00000000       2.64076567
2
Properties=species:S:1:pos:R:3:forces:R:3 energy=-0.13876244146049246 pbc="F F F"
K        0.00000000       0.00000000       0.00000000       0.00000000       0.00000000      -2.35588574
K        0.00000000       0.00000000       2.48383838       0.00000000       0.00000000       2.35588574
2
Properties=species:S:1:pos:R:3:forces:R:3 energy=-0.27088488775438224 pbc="F F F"
K        0.00000000       0.00000000       0.00000000       0.00000000       0.00000000      -2.08035254
K        0.00000000       0.00000000       2.54343434       0.00000000       0.00000000       2.08035254
2
Properties=species:S:1:pos:R:3:forces:R:3 energy=-0.3870568169797665 pbc="F F F"
K        0.00000000       0.00000000       0.00000000       0.00000000       0.00000000      -1.82152212
K        0.00000000       0.00000000       2.60303030       0.00000000       0.00000000       1.82152212
2
Properties=species:S:1:pos:R:3:forces:R:3 energy=-0.4884108266331959 pbc="F F F"
K        0.00000000       0.00000000       0.00000000       0.00000000       0.00000000      -1.58353543
K        0.00000000       0.00000000       2.66262626       0.00000000       0.00000000       1.58353543
2
Properties=species:S:1:pos:R:3:forces:R:3 energy=-0.5762612690719968 pbc="F F F"
K        0.00000000       0.00000000       0.00000000       0.00000000       0.00000000      -1.36863649
K        0.00000000       0.00000000       2.72222222       0.00000000       0.00000000       1.36863649
2
Properties=species:S:1:pos:R:3:forces:R:3 energy=-0.6520317408799918 pbc="F F F"
K        0.00000000       0.00000000       0.00000000       0.00000000       0.00000000      -1.17838311
K        0.00000000       0.00000000       2.78181818       0.00000000       0.00000000       1.17838311
2
Properties=species:S:1:pos:R:3:forces:R:3 energy=-0.7172256568879247 pbc="F F F"
K        0.00000000       0.00000000       0.00000000       0.00000000       0.00000000      -1.01382267
K        0.00000000       0.00000000       2.84141414       0.00000000       0.00000000       1.01382267
2
Properties=species:S:1:pos:R:3:forces:R:3 energy=-0.7733758531543805 pbc="F F F"
K        0.00000000       0.00000000       0.00000000       0.00000000       0.00000000      -0.87461537
K        0.00000000       0.00000000       2.90101010       0.00000000       0.00000000       0.87461537
2
Properties=species:S:1:pos:R:3:forces:R:3 energy=-0.821930504967608 pbc="F F F"
K        0.00000000       0.00000000       0.00000000       0.00000000       0.00000000      -0.75837004
K        0.00000000       0.00000000       2.96060606       0.00000000       0.00000000       0.75837004
2
Properties=species:S:1:pos:R:3:forces:R:3 energy=-0.8641467004604153 pbc="F F F"
K        0.00000000       0.00000000       0.00000000       0.00000000       0.00000000      -0.66123408
K        0.00000000       0.00000000       3.02020202       0.00000000       0.00000000       0.66123408
2
Properties=species:S:1:pos:R:3:forces:R:3 energy=-0.9010456652666141 pbc="F F F"
K        0.00000000       0.00000000       0.00000000       0.00000000       0.00000000      -0.57934809
K        0.00000000       0.00000000       3.07979798       0.00000000       0.00000000       0.57934809
2
Properties=species:S:1:pos:R:3:forces:R:3 energy=-0.9334493926190851 pbc="F F F"
K        0.00000000       0.00000000       0.00000000       0.00000000       0.00000000      -0.51006210
K        0.00000000       0.00000000       3.13939394       0.00000000       0.00000000       0.51006210
2
Properties=species:S:1:pos:R:3:forces:R:3 energy=-0.9620650086807364 pbc="F F F"
K        0.00000000       0.00000000       0.00000000       0.00000000       0.00000000      -0.45206913
K        0.00000000       0.00000000       3.19898990       0.00000000       0.00000000       0.45206913
2
Properties=species:S:1:pos:R:3:forces:R:3 energy=-0.9875418896333091 pbc="F F F"
K        0.00000000       0.00000000       0.00000000       0.00000000       0.00000000      -0.40457937
K        0.00000000       0.00000000       3.25858586       0.00000000       0.00000000       0.40457937
2
Properties=species:S:1:pos:R:3:forces:R:3 energy=-1.0104687416337594 pbc="F F F"
K        0.00000000       0.00000000       0.00000000       0.00000000       0.00000000      -0.36616635
K        0.00000000       0.00000000       3.31818182       0.00000000       0.00000000       0.36616635
2
Properties=species:S:1:pos:R:3:forces:R:3 energy=-1.0313133015045897 pbc="F F F"
K        0.00000000       0.00000000       0.00000000       0.00000000       0.00000000      -0.33412752
K        0.00000000       0.00000000       3.37777778       0.00000000       0.00000000       0.33412752
2
Properties=species:S:1:pos:R:3:forces:R:3 energy=-1.0503463588187578 pbc="F F F"
K        0.00000000       0.00000000       0.00000000       0.00000000       0.00000000      -0.30470023
K        0.00000000       0.00000000       3.43737374       0.00000000       0.00000000       0.30470023
2
Properties=species:S:1:pos:R:3:forces:R:3 energy=-1.067604743583159 pbc="F F F"
K        0.00000000       0.00000000       0.00000000       0.00000000       0.00000000      -0.27399451
K        0.00000000       0.00000000       3.49696970       0.00000000       0.00000000       0.27399451
2
Properties=species:S:1:pos:R:3:forces:R:3 energy=-1.0829212299313216 pbc="F F F"
K        0.00000000       0.00000000       0.00000000       0.00000000       0.00000000      -0.23913248
K        0.00000000       0.00000000       3.55656566       0.00000000       0.00000000       0.23913248
2
Properties=species:S:1:pos:R:3:forces:R:3 energy=-1.0960020502560561 pbc="F F F"
K        0.00000000       0.00000000       0.00000000       0.00000000       0.00000000      -0.19904664
K        0.00000000       0.00000000       3.61616162       0.00000000       0.00000000       0.19904664
2
Properties=species:S:1:pos:R:3:forces:R:3 energy=-1.1065577449957755 pbc="F F F"
K        0.00000000       0.00000000       0.00000000       0.00000000       0.00000000      -0.15462749
K        0.00000000       0.00000000       3.67575758       0.00000000       0.00000000       0.15462749
2
Properties=species:S:1:pos:R:3:forces:R:3 energy=-1.1143925608501857 pbc="F F F"
K        0.00000000       0.00000000       0.00000000       0.00000000       0.00000000      -0.10818340
K        0.00000000       0.00000000       3.73535354       0.00000000       0.00000000       0.10818340
2
Properties=species:S:1:pos:R:3:forces:R:3 energy=-1.1194667191311929 pbc="F F F"
K        0.00000000       0.00000000       0.00000000       0.00000000       0.00000000      -0.06244498
K        0.00000000       0.00000000       3.79494949       0.00000000       0.00000000       0.06244498
2
Properties=species:S:1:pos:R:3:forces:R:3 energy=-1.1218940948536313 pbc="F F F"
K        0.00000000       0.00000000       0.00000000       0.00000000       0.00000000      -0.01960606
K        0.00000000       0.00000000       3.85454545       0.00000000       0.00000000       0.01960606
2
Properties=species:S:1:pos:R:3:forces:R:3 energy=-1.1218849751096265 pbc="F F F"
K        0.00000000       0.00000000       0.00000000       0.00000000       0.00000000       0.01917344
K        0.00000000       0.00000000       3.91414141       0.00000000       0.00000000      -0.01917344
2
Properties=species:S:1:pos:R:3:forces:R:3 energy=-1.1196943263329282 pbc="F F F"
K        0.00000000       0.00000000       0.00000000       0.00000000       0.00000000       0.05364407
K        0.00000000       0.00000000       3.97373737       0.00000000       0.00000000      -0.05364407
2
Properties=species:S:1:pos:R:3:forces:R:3 energy=-1.1155733719210563 pbc="F F F"
K        0.00000000       0.00000000       0.00000000       0.00000000       0.00000000       0.08398350
K        0.00000000       0.00000000       4.03333333       0.00000000       0.00000000      -0.08398350
2
Properties=species:S:1:pos:R:3:forces:R:3 energy=-1.1097626413631865 pbc="F F F"
K        0.00000000       0.00000000       0.00000000       0.00000000       0.00000000       0.11035692
K        0.00000000       0.00000000       4.09292929       0.00000000       0.00000000      -0.11035692
2
Properties=species:S:1:pos:R:3:forces:R:3 energy=-1.1024991113431892 pbc="F F F"
K        0.00000000       0.00000000       0.00000000       0.00000000       0.00000000       0.13272578
K        0.00000000       0.00000000       4.15252525       0.00000000       0.00000000      -0.13272578
2
Properties=species:S:1:pos:R:3:forces:R:3 energy=-1.0940274839384705 pbc="F F F"
K        0.00000000       0.00000000       0.00000000       0.00000000       0.00000000       0.15083461
K        0.00000000       0.00000000       4.21212121       0.00000000       0.00000000      -0.15083461
2
Properties=species:S:1:pos:R:3:forces:R:3 energy=-1.0846144759463556 pbc="F F F"
K        0.00000000       0.00000000       0.00000000       0.00000000       0.00000000       0.16418776
K        0.00000000       0.00000000       4.27171717       0.00000000       0.00000000      -0.16418776
2
Properties=species:S:1:pos:R:3:forces:R:3 energy=-1.0745698038512124 pbc="F F F"
K        0.00000000       0.00000000       0.00000000       0.00000000       0.00000000       0.17187107
K        0.00000000       0.00000000       4.33131313       0.00000000       0.00000000      -0.17187107
2
Properties=species:S:1:pos:R:3:forces:R:3 energy=-1.0642732399717227 pbc="F F F"
K        0.00000000       0.00000000       0.00000000       0.00000000       0.00000000       0.17228127
K        0.00000000       0.00000000       4.39090909       0.00000000       0.00000000      -0.17228127
2
Properties=species:S:1:pos:R:3:forces:R:3 energy=-1.0542256842330673 pbc="F F F"
K        0.00000000       0.00000000       0.00000000       0.00000000       0.00000000       0.16309509
K        0.00000000       0.00000000       4.45050505       0.00000000       0.00000000      -0.16309509
2
Properties=species:S:1:pos:R:3:forces:R:3 energy=-1.0450662209529133 pbc="F F F"
K        0.00000000       0.00000000       0.00000000       0.00000000       0.00000000       0.14229976
K        0.00000000       0.00000000       4.51010101       0.00000000       0.00000000      -0.14229976
2
Properties=species:S:1:pos:R:3:forces:R:3 energy=-1.0374729421515108 pbc="F F F"
K        0.00000000       0.00000000       0.00000000       0.00000000       0.00000000       0.11128701
K        0.00000000       0.00000000       4.56969697       0.00000000       0.00000000      -0.11128701
2
Properties=species:S:1:pos:R:3:forces:R:3 energy=-1.0318299091745031 pbc="F F F"
K        0.00000000       0.00000000       0.00000000       0.00000000       0.00000000       0.07916470
K        0.00000000       0.00000000       4.62929293       0.00000000       0.00000000      -0.07916470
2
Properties=species:S:1:pos:R:3:forces:R:3 energy=-1.0277196347678257 pbc="F F F"
K        0.00000000       0.00000000       0.00000000       0.00000000       0.00000000       0.06302136
K        0.00000000       0.00000000       4.68888889       0.00000000       0.00000000      -0.06302136
2
Properties=species:S:1:pos:R:3:forces:R:3 energy=-1.0236727131644696 pbc="F F F"
K        0.00000000       0.00000000       0.00000000       0.00000000       0.00000000       0.07887512
K        0.00000000       0.00000000       4.74848485       0.00000000       0.00000000      -0.07887512
2
Properties=species:S:1:pos:R:3:forces:R:3 energy=-1.0176095396844715 pbc="F F F"
K        0.00000000       0.00000000       0.00000000       0.00000000       0.00000000       0.12990403
K        0.00000000       0.00000000       4.80808081       0.00000000       0.00000000      -0.12990403
2
Properties=species:S:1:pos:R:3:forces:R:3 energy=-1.0077005435467705 pbc="F F F"
K        0.00000000       0.00000000       0.00000000       0.00000000       0.00000000       0.20541336
K        0.00000000       0.00000000       4.86767677       0.00000000       0.00000000      -0.20541336
2
Properties=species:S:1:pos:R:3:forces:R:3 energy=-0.9929362301898155 pbc="F F F"
K        0.00000000       0.00000000       0.00000000       0.00000000       0.00000000       0.29062000
K        0.00000000       0.00000000       4.92727273       0.00000000       0.00000000      -0.29062000
2
Properties=species:S:1:pos:R:3:forces:R:3 energy=-0.9730751151299137 pbc="F F F"
K        0.00000000       0.00000000       0.00000000       0.00000000       0.00000000       0.37531883
K        0.00000000       0.00000000       4.98686869       0.00000000       0.00000000      -0.37531883
2
Properties=species:S:1:pos:R:3:forces:R:3 energy=-0.9483013767496328 pbc="F F F"
K        0.00000000       0.00000000       0.00000000       0.00000000       0.00000000       0.45521340
K        0.00000000       0.00000000       5.04646465       0.00000000       0.00000000      -0.45521340
2
Properties=species:S:1:pos:R:3:forces:R:3 energy=-0.9189565522792917 pbc="F F F"
K        0.00000000       0.00000000       0.00000000       0.00000000       0.00000000       0.52810919
K        0.00000000       0.00000000       5.10606061       0.00000000       0.00000000      -0.52810919
2
Properties=species:S:1:pos:R:3:forces:R:3 energy=-0.8855879713614285 pbc="F F F"
K        0.00000000       0.00000000       0.00000000       0.00000000       0.00000000       0.58875948
K        0.00000000       0.00000000       5.16565657       0.00000000       0.00000000      -0.58875948
2
Properties=species:S:1:pos:R:3:forces:R:3 energy=-0.8492466901964749 pbc="F F F"
K        0.00000000       0.00000000       0.00000000       0.00000000       0.00000000       0.62574106
K        0.00000000       0.00000000       5.22525253       0.00000000       0.00000000      -0.62574106
2
Properties=species:S:1:pos:R:3:forces:R:3 energy=-0.8117372687769682 pbc="F F F"
K        0.00000000       0.00000000       0.00000000       0.00000000       0.00000000       0.62664878
K        0.00000000       0.00000000       5.28484848       0.00000000       0.00000000      -0.62664878
2
Properties=species:S:1:pos:R:3:forces:R:3 energy=-0.7751383216627956 pbc="F F F"
K        0.00000000       0.00000000       0.00000000       0.00000000       0.00000000       0.59988135
K        0.00000000       0.00000000       5.34444444       0.00000000       0.00000000      -0.59988135
2
Properties=species:S:1:pos:R:3:forces:R:3 energy=-0.739819036365182 pbc="F F F"
K        0.00000000       0.00000000       0.00000000       0.00000000       0.00000000       0.59370810
K        0.00000000       0.00000000       5.40404040       0.00000000       0.00000000      -0.59370810
2
Properties=species:S:1:pos:R:3:forces:R:3 energy=-0.7033126512829271 pbc="F F F"
K        0.00000000       0.00000000       0.00000000       0.00000000       0.00000000       0.63575333
K        0.00000000       0.00000000       5.46363636       0.00000000       0.00000000      -0.63575333
2
Properties=species:S:1:pos:R:3:forces:R:3 energy=-0.6645759306051315 pbc="F F F"
K        0.00000000       0.00000000       0.00000000       0.00000000       0.00000000       0.65257293
K        0.00000000       0.00000000       5.52323232       0.00000000       0.00000000      -0.65257293
2
Properties=species:S:1:pos:R:3:forces:R:3 energy=-0.6271739559326172 pbc="F F F"
K        0.00000000       0.00000000       0.00000000       0.00000000       0.00000000       0.59246850
K        0.00000000       0.00000000       5.58282828       0.00000000       0.00000000      -0.59246850
2
Properties=species:S:1:pos:R:3:forces:R:3 energy=-0.594121946331798 pbc="F F F"
K        0.00000000       0.00000000       0.00000000       0.00000000       0.00000000       0.52521104
K        0.00000000       0.00000000       5.64242424       0.00000000       0.00000000      -0.52521104
2
Properties=species:S:1:pos:R:3:forces:R:3 energy=-0.5626882744206684 pbc="F F F"
K        0.00000000       0.00000000       0.00000000       0.00000000       0.00000000       0.54701096
K        0.00000000       0.00000000       5.70202020       0.00000000       0.00000000      -0.54701096
2
Properties=species:S:1:pos:R:3:forces:R:3 energy=-0.5278514380037486 pbc="F F F"
K        0.00000000       0.00000000       0.00000000       0.00000000       0.00000000       0.61737037
K        0.00000000       0.00000000       5.76161616       0.00000000       0.00000000      -0.61737037
2
Properties=species:S:1:pos:R:3:forces:R:3 energy=-0.49167688361863676 pbc="F F F"
K        0.00000000       0.00000000       0.00000000       0.00000000       0.00000000       0.56476712
K        0.00000000       0.00000000       5.82121212       0.00000000       0.00000000      -0.56476712
2
Properties=species:S:1:pos:R:3:forces:R:3 energy=-0.46377163126483806 pbc="F F F"
K        0.00000000       0.00000000       0.00000000       0.00000000       0.00000000       0.35956779
K        0.00000000       0.00000000       5.88080808       0.00000000       0.00000000      -0.35956779
2
Properties=species:S:1:pos:R:3:forces:R:3 energy=-0.44881964355856596 pbc="F F F"
K        0.00000000       0.00000000       0.00000000       0.00000000       0.00000000       0.15055734
K        0.00000000       0.00000000       5.94040404       0.00000000       0.00000000      -0.15055734
2
Properties=species:S:1:pos:R:3:forces:R:3 energy=-0.44321893960223724 pbc="F F F"
K        0.00000000       0.00000000       0.00000000       0.00000000       0.00000000       0.06572454
K        0.00000000       0.00000000       6.00000000       0.00000000       0.00000000      -0.06572454
