2
Properties=species:S:1:pos:R:3:forces:R:3 energy=51893.58914088125 pbc="F F F"
La       0.00000000       0.00000000       0.00000000       0.00000000       0.00000000 -1270500.00000000
La       0.00000000       0.00000000       0.10000000       0.00000000       0.00000000 1270500.00000000
2
Properties=species:S:1:pos:R:3:forces:R:3 energy=14864.856719006257 pbc="F F F"
La       0.00000000       0.00000000       0.00000000       0.00000000       0.00000000 -271342.06250000
La       0.00000000       0.00000000       0.15959596       0.00000000       0.00000000  271342.06250000
2
Properties=species:S:1:pos:R:3:forces:R:3 energy=5559.237090100006 pbc="F F F"
La       0.00000000       0.00000000       0.00000000       0.00000000       0.00000000  -83713.67968750
La       0.00000000       0.00000000       0.21919192       0.00000000       0.00000000   83713.67968750
2
Properties=species:S:1:pos:R:3:forces:R:3 energy=2410.992949475006 pbc="F F F"
La       0.00000000       0.00000000       0.00000000       0.00000000       0.00000000  -31596.33593750
La       0.00000000       0.00000000       0.27878788       0.00000000       0.00000000   31596.33593750
2
Properties=species:S:1:pos:R:3:forces:R:3 energy=1154.694853771881 pbc="F F F"
La       0.00000000       0.00000000       0.00000000       0.00000000       0.00000000  -13449.26171875
La       0.00000000       0.00000000       0.33838384       0.00000000       0.00000000   13449.26171875
2
Properties=species:S:1:pos:R:3:forces:R:3 energy=599.8020925477479 pbc="F F F"
La       0.00000000       0.00000000       0.00000000       0.00000000       0.00000000   -6203.24804688
La       0.00000000       0.00000000       0.39797980       0.00000000       0.00000000    6203.24804688
2
Properties=species:S:1:pos:R:3:forces:R:3 energy=336.63568019423224 pbc="F F F"
La       0.00000000       0.00000000       0.00000000       0.00000000       0.00000000   -3041.33349609
La       0.00000000       0.00000000       0.45757576       0.00000000       0.00000000    3041.33349609
2
Properties=species:S:1:pos:R:3:forces:R:3 energy=204.55758571814602 pbc="F F F"
La       0.00000000       0.00000000       0.00000000       0.00000000       0.00000000   -1569.88378906
La       0.00000000       0.00000000       0.51717172       0.00000000       0.00000000    1569.88378906
2
Properties=species:S:1:pos:R:3:forces:R:3 energy=134.93846036460636 pbc="F F F"
La       0.00000000       0.00000000       0.00000000       0.00000000       0.00000000    -848.53338623
La       0.00000000       0.00000000       0.57676768       0.00000000       0.00000000     848.53338623
2
Properties=species:S:1:pos:R:3:forces:R:3 energy=96.57096770783205 pbc="F F F"
La       0.00000000       0.00000000       0.00000000       0.00000000       0.00000000    -478.59097290
La       0.00000000       0.00000000       0.63636364       0.00000000       0.00000000     478.59097290
2
Properties=species:S:1:pos:R:3:forces:R:3 energy=74.52426059252561 pbc="F F F"
La       0.00000000       0.00000000       0.00000000       0.00000000       0.00000000    -281.19958496
La       0.00000000       0.00000000       0.69595960       0.00000000       0.00000000     281.19958496
2
Properties=species:S:1:pos:R:3:forces:R:3 energy=61.32254326650177 pbc="F F F"
La       0.00000000       0.00000000       0.00000000       0.00000000       0.00000000    -172.30839539
La       0.00000000       0.00000000       0.75555556       0.00000000       0.00000000     172.30839539
2
Properties=species:S:1:pos:R:3:forces:R:3 energy=53.05920333352032 pbc="F F F"
La       0.00000000       0.00000000       0.00000000       0.00000000       0.00000000    -110.72485352
La       0.00000000       0.00000000       0.81515152       0.00000000       0.00000000     110.72485352
2
Properties=species:S:1:pos:R:3:forces:R:3 energy=47.60893565581387 pbc="F F F"
La       0.00000000       0.00000000       0.00000000       0.00000000       0.00000000     -75.43013000
La       0.00000000       0.00000000       0.87474747       0.00000000       0.00000000      75.43013000
2
Properties=species:S:1:pos:R:3:forces:R:3 energy=43.770480607674024 pbc="F F F"
La       0.00000000       0.00000000       0.00000000       0.00000000       0.00000000     -55.30078506
La       0.00000000       0.00000000       0.93434343       0.00000000       0.00000000      55.30078506
2
Properties=species:S:1:pos:R:3:forces:R:3 energy=40.837382983730464 pbc="F F F"
La       0.00000000       0.00000000       0.00000000       0.00000000       0.00000000     -44.33335114
La       0.00000000       0.00000000       0.99393939       0.00000000       0.00000000      44.33335114
2
Properties=species:S:1:pos:R:3:forces:R:3 energy=38.368099204881624 pbc="F F F"
La       0.00000000       0.00000000       0.00000000       0.00000000       0.00000000     -39.37300491
La       0.00000000       0.00000000       1.05353535       0.00000000       0.00000000      39.37300491
2
Properties=species:S:1:pos:R:3:forces:R:3 energy=36.05523718878005 pbc="F F F"
La       0.00000000       0.00000000       0.00000000       0.00000000       0.00000000     -38.92733002
La       0.00000000       0.00000000       1.11313131       0.00000000       0.00000000      38.92733002
2
Properties=species:S:1:pos:R:3:forces:R:3 energy=33.65463344124907 pbc="F F F"
La       0.00000000       0.00000000       0.00000000       0.00000000       0.00000000     -42.16749191
La       0.00000000       0.00000000       1.17272727       0.00000000       0.00000000      42.16749191
2
Properties=species:S:1:pos:R:3:forces:R:3 energy=30.981511687814574 pbc="F F F"
La       0.00000000       0.00000000       0.00000000       0.00000000       0.00000000     -47.78180695
La       0.00000000       0.00000000       1.23232323       0.00000000       0.00000000      47.78180695
2
Properties=species:S:1:pos:R:3:forces:R:3 energy=27.9472794308579 pbc="F F F"
La       0.00000000       0.00000000       0.00000000       0.00000000       0.00000000     -54.04489517
La       0.00000000       0.00000000       1.29191919       0.00000000       0.00000000      54.04489517
2
Properties=species:S:1:pos:R:3:forces:R:3 energy=24.549174873908253 pbc="F F F"
La       0.00000000       0.00000000       0.00000000       0.00000000       0.00000000     -59.80924988
La       0.00000000       0.00000000       1.35151515       0.00000000       0.00000000      59.80924988
2
Properties=species:S:1:pos:R:3:forces:R:3 energy=20.86348437089746 pbc="F F F"
La       0.00000000       0.00000000       0.00000000       0.00000000       0.00000000     -63.26782990
La       0.00000000       0.00000000       1.41111111       0.00000000       0.00000000      63.26782990
2
Properties=species:S:1:pos:R:3:forces:R:3 energy=17.104370811720056 pbc="F F F"
La       0.00000000       0.00000000       0.00000000       0.00000000       0.00000000     -61.98786163
La       0.00000000       0.00000000       1.47070707       0.00000000       0.00000000      61.98786163
2
Properties=species:S:1:pos:R:3:forces:R:3 energy=13.567097550137753 pbc="F F F"
La       0.00000000       0.00000000       0.00000000       0.00000000       0.00000000     -56.19174957
La       0.00000000       0.00000000       1.53030303       0.00000000       0.00000000      56.19174957
2
Properties=species:S:1:pos:R:3:forces:R:3 energy=10.43612911049352 pbc="F F F"
La       0.00000000       0.00000000       0.00000000       0.00000000       0.00000000     -48.85839462
La       0.00000000       0.00000000       1.58989899       0.00000000       0.00000000      48.85839462
2
Properties=species:S:1:pos:R:3:forces:R:3 energy=7.7361337981916956 pbc="F F F"
La       0.00000000       0.00000000       0.00000000       0.00000000       0.00000000     -41.81833267
La       0.00000000       0.00000000       1.64949495       0.00000000       0.00000000      41.81833267
2
Properties=species:S:1:pos:R:3:forces:R:3 energy=5.449175472225494 pbc="F F F"
La       0.00000000       0.00000000       0.00000000       0.00000000       0.00000000     -34.91785431
La       0.00000000       0.00000000       1.70909091       0.00000000       0.00000000      34.91785431
2
Properties=species:S:1:pos:R:3:forces:R:3 energy=3.572308823510289 pbc="F F F"
La       0.00000000       0.00000000       0.00000000       0.00000000       0.00000000     -28.16448784
La       0.00000000       0.00000000       1.76868687       0.00000000       0.00000000      28.16448784
2
Properties=species:S:1:pos:R:3:forces:R:3 energy=2.067432763462972 pbc="F F F"
La       0.00000000       0.00000000       0.00000000       0.00000000       0.00000000     -22.62948418
La       0.00000000       0.00000000       1.82828283       0.00000000       0.00000000      22.62948418
2
Properties=species:S:1:pos:R:3:forces:R:3 energy=0.8406337761200974 pbc="F F F"
La       0.00000000       0.00000000       0.00000000       0.00000000       0.00000000     -18.77877426
La       0.00000000       0.00000000       1.88787879       0.00000000       0.00000000      18.77877426
2
Properties=species:S:1:pos:R:3:forces:R:3 energy=-0.1904884339682552 pbc="F F F"
La       0.00000000       0.00000000       0.00000000       0.00000000       0.00000000     -15.92839241
La       0.00000000       0.00000000       1.94747475       0.00000000       0.00000000      15.92839241
2
Properties=species:S:1:pos:R:3:forces:R:3 energy=-1.0660326139743328 pbc="F F F"
La       0.00000000       0.00000000       0.00000000       0.00000000       0.00000000     -13.50278473
La       0.00000000       0.00000000       2.00707071       0.00000000       0.00000000      13.50278473
2
Properties=species:S:1:pos:R:3:forces:R:3 energy=-1.8053293011324936 pbc="F F F"
La       0.00000000       0.00000000       0.00000000       0.00000000       0.00000000     -11.35609531
La       0.00000000       0.00000000       2.06666667       0.00000000       0.00000000      11.35609531
2
Properties=species:S:1:pos:R:3:forces:R:3 energy=-2.4260910303326 pbc="F F F"
La       0.00000000       0.00000000       0.00000000       0.00000000       0.00000000      -9.53448391
La       0.00000000       0.00000000       2.12626263       0.00000000       0.00000000       9.53448391
2
Properties=species:S:1:pos:R:3:forces:R:3 energy=-2.948361930783953 pbc="F F F"
La       0.00000000       0.00000000       0.00000000       0.00000000       0.00000000      -8.04014587
La       0.00000000       0.00000000       2.18585859       0.00000000       0.00000000       8.04014587
2
Properties=species:S:1:pos:R:3:forces:R:3 energy=-3.3885293067114124 pbc="F F F"
La       0.00000000       0.00000000       0.00000000       0.00000000       0.00000000      -6.75233078
La       0.00000000       0.00000000       2.24545455       0.00000000       0.00000000       6.75233078
2
Properties=species:S:1:pos:R:3:forces:R:3 energy=-3.7543032855096197 pbc="F F F"
La       0.00000000       0.00000000       0.00000000       0.00000000       0.00000000      -5.52404547
La       0.00000000       0.00000000       2.30505051       0.00000000       0.00000000       5.52404547
2
Properties=species:S:1:pos:R:3:forces:R:3 energy=-4.046794262528922 pbc="F F F"
La       0.00000000       0.00000000       0.00000000       0.00000000       0.00000000      -4.29111576
La       0.00000000       0.00000000       2.36464646       0.00000000       0.00000000       4.29111576
2
Properties=species:S:1:pos:R:3:forces:R:3 energy=-4.266167841311226 pbc="F F F"
La       0.00000000       0.00000000       0.00000000       0.00000000       0.00000000      -3.07946730
La       0.00000000       0.00000000       2.42424242       0.00000000       0.00000000       3.07946730
2
Properties=species:S:1:pos:R:3:forces:R:3 energy=-4.415562863470944 pbc="F F F"
La       0.00000000       0.00000000       0.00000000       0.00000000       0.00000000      -1.95413339
La       0.00000000       0.00000000       2.48383838       0.00000000       0.00000000       1.95413339
2
Properties=species:S:1:pos:R:3:forces:R:3 energy=-4.502012136897969 pbc="F F F"
La       0.00000000       0.00000000       0.00000000       0.00000000       0.00000000      -0.97531021
La       0.00000000       0.00000000       2.54343434       0.00000000       0.00000000       0.97531021
2
Properties=species:S:1:pos:R:3:forces:R:3 energy=-4.535434363991374 pbc="F F F"
La       0.00000000       0.00000000       0.00000000       0.00000000       0.00000000      -0.17791681
La       0.00000000       0.00000000       2.60303030       0.00000000       0.00000000       0.17791681
2
Properties=species:S:1:pos:R:3:forces:R:3 energy=-4.526984226407391 pbc="F F F"
La       0.00000000       0.00000000       0.00000000       0.00000000       0.00000000       0.43054760
La       0.00000000       0.00000000       2.66262626       0.00000000       0.00000000      -0.43054760
2
Properties=species:S:1:pos:R:3:forces:R:3 energy=-4.487634482091011 pbc="F F F"
La       0.00000000       0.00000000       0.00000000       0.00000000       0.00000000       0.86227924
La       0.00000000       0.00000000       2.72222222       0.00000000       0.00000000      -0.86227924
2
Properties=species:S:1:pos:R:3:forces:R:3 energy=-4.427263487360679 pbc="F F F"
La       0.00000000       0.00000000       0.00000000       0.00000000       0.00000000       1.14038992
La       0.00000000       0.00000000       2.78181818       0.00000000       0.00000000      -1.14038992
2
Properties=species:S:1:pos:R:3:forces:R:3 energy=-4.354190496090951 pbc="F F F"
La       0.00000000       0.00000000       0.00000000       0.00000000       0.00000000       1.29371333
La       0.00000000       0.00000000       2.84141414       0.00000000       0.00000000      -1.29371333
2
Properties=species:S:1:pos:R:3:forces:R:3 energy=-4.274894108713416 pbc="F F F"
La       0.00000000       0.00000000       0.00000000       0.00000000       0.00000000       1.35500836
La       0.00000000       0.00000000       2.90101010       0.00000000       0.00000000      -1.35500836
2
Properties=species:S:1:pos:R:3:forces:R:3 energy=-4.193811615480074 pbc="F F F"
La       0.00000000       0.00000000       0.00000000       0.00000000       0.00000000       1.35951269
La       0.00000000       0.00000000       2.96060606       0.00000000       0.00000000      -1.35951269
2
Properties=species:S:1:pos:R:3:forces:R:3 energy=-4.113294115085845 pbc="F F F"
La       0.00000000       0.00000000       0.00000000       0.00000000       0.00000000       1.34143817
La       0.00000000       0.00000000       3.02020202       0.00000000       0.00000000      -1.34143817
2
Properties=species:S:1:pos:R:3:forces:R:3 energy=-4.033814385335446 pbc="F F F"
La       0.00000000       0.00000000       0.00000000       0.00000000       0.00000000       1.32850945
La       0.00000000       0.00000000       3.07979798       0.00000000       0.00000000      -1.32850945
2
Properties=species:S:1:pos:R:3:forces:R:3 energy=-3.954520467085634 pbc="F F F"
La       0.00000000       0.00000000       0.00000000       0.00000000       0.00000000       1.33650160
La       0.00000000       0.00000000       3.13939394       0.00000000       0.00000000      -1.33650160
2
Properties=species:S:1:pos:R:3:forces:R:3 energy=-3.874073333763937 pbc="F F F"
La       0.00000000       0.00000000       0.00000000       0.00000000       0.00000000       1.36620593
La       0.00000000       0.00000000       3.19898990       0.00000000       0.00000000      -1.36620593
2
Properties=species:S:1:pos:R:3:forces:R:3 energy=-3.7914945918108023 pbc="F F F"
La       0.00000000       0.00000000       0.00000000       0.00000000       0.00000000       1.40497887
La       0.00000000       0.00000000       3.25858586       0.00000000       0.00000000      -1.40497887
2
Properties=species:S:1:pos:R:3:forces:R:3 energy=-3.706813047547981 pbc="F F F"
La       0.00000000       0.00000000       0.00000000       0.00000000       0.00000000       1.43363965
La       0.00000000       0.00000000       3.31818182       0.00000000       0.00000000      -1.43363965
2
Properties=species:S:1:pos:R:3:forces:R:3 energy=-3.6211419558225963 pbc="F F F"
La       0.00000000       0.00000000       0.00000000       0.00000000       0.00000000       1.43630123
La       0.00000000       0.00000000       3.37777778       0.00000000       0.00000000      -1.43630123
2
Properties=species:S:1:pos:R:3:forces:R:3 energy=-3.5362410721164124 pbc="F F F"
La       0.00000000       0.00000000       0.00000000       0.00000000       0.00000000       1.40800631
La       0.00000000       0.00000000       3.43737374       0.00000000       0.00000000      -1.40800631
2
Properties=species:S:1:pos:R:3:forces:R:3 energy=-3.453794842489994 pbc="F F F"
La       0.00000000       0.00000000       0.00000000       0.00000000       0.00000000       1.35598099
La       0.00000000       0.00000000       3.49696970       0.00000000       0.00000000      -1.35598099
2
Properties=species:S:1:pos:R:3:forces:R:3 energy=-3.3748017765795297 pbc="F F F"
La       0.00000000       0.00000000       0.00000000       0.00000000       0.00000000       1.29477096
La       0.00000000       0.00000000       3.55656566       0.00000000       0.00000000      -1.29477096
2
Properties=species:S:1:pos:R:3:forces:R:3 energy=-3.299350508776907 pbc="F F F"
La       0.00000000       0.00000000       0.00000000       0.00000000       0.00000000       1.23933482
La       0.00000000       0.00000000       3.61616162       0.00000000       0.00000000      -1.23933482
2
Properties=species:S:1:pos:R:3:forces:R:3 energy=-3.226754948952424 pbc="F F F"
La       0.00000000       0.00000000       0.00000000       0.00000000       0.00000000       1.20019174
La       0.00000000       0.00000000       3.67575758       0.00000000       0.00000000      -1.20019174
2
Properties=species:S:1:pos:R:3:forces:R:3 energy=-3.1558719341301207 pbc="F F F"
La       0.00000000       0.00000000       0.00000000       0.00000000       0.00000000       1.18234706
La       0.00000000       0.00000000       3.73535354       0.00000000       0.00000000      -1.18234706
2
Properties=species:S:1:pos:R:3:forces:R:3 energy=-3.0853867354071904 pbc="F F F"
La       0.00000000       0.00000000       0.00000000       0.00000000       0.00000000       1.18668592
La       0.00000000       0.00000000       3.79494949       0.00000000       0.00000000      -1.18668592
2
Properties=species:S:1:pos:R:3:forces:R:3 energy=-3.014032945660288 pbc="F F F"
La       0.00000000       0.00000000       0.00000000       0.00000000       0.00000000       1.21076918
La       0.00000000       0.00000000       3.85454545       0.00000000       0.00000000      -1.21076918
2
Properties=species:S:1:pos:R:3:forces:R:3 energy=-2.9408251654376265 pbc="F F F"
La       0.00000000       0.00000000       0.00000000       0.00000000       0.00000000       1.24713719
La       0.00000000       0.00000000       3.91414141       0.00000000       0.00000000      -1.24713719
2
Properties=species:S:1:pos:R:3:forces:R:3 energy=-2.865405128321795 pbc="F F F"
La       0.00000000       0.00000000       0.00000000       0.00000000       0.00000000       1.28238392
La       0.00000000       0.00000000       3.97373737       0.00000000       0.00000000      -1.28238392
2
Properties=species:S:1:pos:R:3:forces:R:3 energy=-2.78829286053146 pbc="F F F"
La       0.00000000       0.00000000       0.00000000       0.00000000       0.00000000       1.30181634
La       0.00000000       0.00000000       4.03333333       0.00000000       0.00000000      -1.30181634
2
Properties=species:S:1:pos:R:3:forces:R:3 energy=-2.7107370830698123 pbc="F F F"
La       0.00000000       0.00000000       0.00000000       0.00000000       0.00000000       1.29649246
La       0.00000000       0.00000000       4.09292929       0.00000000       0.00000000      -1.29649246
2
Properties=species:S:1:pos:R:3:forces:R:3 energy=-2.63427142031866 pbc="F F F"
La       0.00000000       0.00000000       0.00000000       0.00000000       0.00000000       1.26566303
La       0.00000000       0.00000000       4.15252525       0.00000000       0.00000000      -1.26566303
2
Properties=species:S:1:pos:R:3:forces:R:3 energy=-2.560290805387737 pbc="F F F"
La       0.00000000       0.00000000       0.00000000       0.00000000       0.00000000       1.21426177
La       0.00000000       0.00000000       4.21212121       0.00000000       0.00000000      -1.21426177
2
Properties=species:S:1:pos:R:3:forces:R:3 energy=-2.4898080198889208 pbc="F F F"
La       0.00000000       0.00000000       0.00000000       0.00000000       0.00000000       1.14945126
La       0.00000000       0.00000000       4.27171717       0.00000000       0.00000000      -1.14945126
2
Properties=species:S:1:pos:R:3:forces:R:3 energy=-2.423405364467731 pbc="F F F"
La       0.00000000       0.00000000       0.00000000       0.00000000       0.00000000       1.07859170
La       0.00000000       0.00000000       4.33131313       0.00000000       0.00000000      -1.07859170
2
Properties=species:S:1:pos:R:3:forces:R:3 energy=-2.3612346077401303 pbc="F F F"
La       0.00000000       0.00000000       0.00000000       0.00000000       0.00000000       1.00841856
La       0.00000000       0.00000000       4.39090909       0.00000000       0.00000000      -1.00841856
2
Properties=species:S:1:pos:R:3:forces:R:3 energy=-2.3030795078655877 pbc="F F F"
La       0.00000000       0.00000000       0.00000000       0.00000000       0.00000000       0.94472486
La       0.00000000       0.00000000       4.45050505       0.00000000       0.00000000      -0.94472486
2
Properties=species:S:1:pos:R:3:forces:R:3 energy=-2.248410655606294 pbc="F F F"
La       0.00000000       0.00000000       0.00000000       0.00000000       0.00000000       0.89209443
La       0.00000000       0.00000000       4.51010101       0.00000000       0.00000000      -0.89209443
2
Properties=species:S:1:pos:R:3:forces:R:3 energy=-2.1964679025202862 pbc="F F F"
La       0.00000000       0.00000000       0.00000000       0.00000000       0.00000000       0.85352325
La       0.00000000       0.00000000       4.56969697       0.00000000       0.00000000      -0.85352325
2
Properties=species:S:1:pos:R:3:forces:R:3 energy=-2.1463755498378125 pbc="F F F"
La       0.00000000       0.00000000       0.00000000       0.00000000       0.00000000       0.83001214
La       0.00000000       0.00000000       4.62929293       0.00000000       0.00000000      -0.83001214
2
Properties=species:S:1:pos:R:3:forces:R:3 energy=-2.097263841910502 pbc="F F F"
La       0.00000000       0.00000000       0.00000000       0.00000000       0.00000000       0.82022965
La       0.00000000       0.00000000       4.68888889       0.00000000       0.00000000      -0.82022965
2
Properties=species:S:1:pos:R:3:forces:R:3 energy=-2.048411808954633 pbc="F F F"
La       0.00000000       0.00000000       0.00000000       0.00000000       0.00000000       0.82038838
La       0.00000000       0.00000000       4.74848485       0.00000000       0.00000000      -0.82038838
2
Properties=species:S:1:pos:R:3:forces:R:3 energy=-1.999396519417551 pbc="F F F"
La       0.00000000       0.00000000       0.00000000       0.00000000       0.00000000       0.82472718
La       0.00000000       0.00000000       4.80808081       0.00000000       0.00000000      -0.82472718
2
Properties=species:S:1:pos:R:3:forces:R:3 energy=-1.9501581325718063 pbc="F F F"
La       0.00000000       0.00000000       0.00000000       0.00000000       0.00000000       0.82671452
La       0.00000000       0.00000000       4.86767677       0.00000000       0.00000000      -0.82671452
2
Properties=species:S:1:pos:R:3:forces:R:3 energy=-1.9010124028192656 pbc="F F F"
La       0.00000000       0.00000000       0.00000000       0.00000000       0.00000000       0.82096905
La       0.00000000       0.00000000       4.92727273       0.00000000       0.00000000      -0.82096905
2
Properties=species:S:1:pos:R:3:forces:R:3 energy=-1.852507440810227 pbc="F F F"
La       0.00000000       0.00000000       0.00000000       0.00000000       0.00000000       0.80517411
La       0.00000000       0.00000000       4.98686869       0.00000000       0.00000000      -0.80517411
2
Properties=species:S:1:pos:R:3:forces:R:3 energy=-1.8052161458956864 pbc="F F F"
La       0.00000000       0.00000000       0.00000000       0.00000000       0.00000000       0.78098357
La       0.00000000       0.00000000       5.04646465       0.00000000       0.00000000      -0.78098357
2
Properties=species:S:1:pos:R:3:forces:R:3 energy=-1.7595078062962517 pbc="F F F"
La       0.00000000       0.00000000       0.00000000       0.00000000       0.00000000       0.75253832
La       0.00000000       0.00000000       5.10606061       0.00000000       0.00000000      -0.75253832
2
Properties=species:S:1:pos:R:3:forces:R:3 energy=-1.7155424162380613 pbc="F F F"
La       0.00000000       0.00000000       0.00000000       0.00000000       0.00000000       0.72231025
La       0.00000000       0.00000000       5.16565657       0.00000000       0.00000000      -0.72231025
2
Properties=species:S:1:pos:R:3:forces:R:3 energy=-1.673519182971987 pbc="F F F"
La       0.00000000       0.00000000       0.00000000       0.00000000       0.00000000       0.68634564
La       0.00000000       0.00000000       5.22525253       0.00000000       0.00000000      -0.68634564
2
Properties=species:S:1:pos:R:3:forces:R:3 energy=-1.6340387151055604 pbc="F F F"
La       0.00000000       0.00000000       0.00000000       0.00000000       0.00000000       0.63566506
La       0.00000000       0.00000000       5.28484848       0.00000000       0.00000000      -0.63566506
2
Properties=species:S:1:pos:R:3:forces:R:3 energy=-1.5980018392587192 pbc="F F F"
La       0.00000000       0.00000000       0.00000000       0.00000000       0.00000000       0.57376558
La       0.00000000       0.00000000       5.34444444       0.00000000       0.00000000      -0.57376558
2
Properties=species:S:1:pos:R:3:forces:R:3 energy=-1.5651720489054712 pbc="F F F"
La       0.00000000       0.00000000       0.00000000       0.00000000       0.00000000       0.53579938
La       0.00000000       0.00000000       5.40404040       0.00000000       0.00000000      -0.53579938
2
Properties=species:S:1:pos:R:3:forces:R:3 energy=-1.5331216118908906 pbc="F F F"
La       0.00000000       0.00000000       0.00000000       0.00000000       0.00000000       0.54497570
La       0.00000000       0.00000000       5.46363636       0.00000000       0.00000000      -0.54497570
2
Properties=species:S:1:pos:R:3:forces:R:3 energy=-1.5004125067639789 pbc="F F F"
La       0.00000000       0.00000000       0.00000000       0.00000000       0.00000000       0.54530770
La       0.00000000       0.00000000       5.52323232       0.00000000       0.00000000      -0.54530770
2
Properties=species:S:1:pos:R:3:forces:R:3 energy=-1.4692680094944999 pbc="F F F"
La       0.00000000       0.00000000       0.00000000       0.00000000       0.00000000       0.49265820
La       0.00000000       0.00000000       5.58282828       0.00000000       0.00000000      -0.49265820
2
Properties=species:S:1:pos:R:3:forces:R:3 energy=-1.441771721946682 pbc="F F F"
La       0.00000000       0.00000000       0.00000000       0.00000000       0.00000000       0.43686259
La       0.00000000       0.00000000       5.64242424       0.00000000       0.00000000      -0.43686259
2
Properties=species:S:1:pos:R:3:forces:R:3 energy=-1.4157358475954753 pbc="F F F"
La       0.00000000       0.00000000       0.00000000       0.00000000       0.00000000       0.45003149
La       0.00000000       0.00000000       5.70202020       0.00000000       0.00000000      -0.45003149
2
Properties=species:S:1:pos:R:3:forces:R:3 energy=-1.3873570731274334 pbc="F F F"
La       0.00000000       0.00000000       0.00000000       0.00000000       0.00000000       0.49825883
La       0.00000000       0.00000000       5.76161616       0.00000000       0.00000000      -0.49825883
2
Properties=species:S:1:pos:R:3:forces:R:3 energy=-1.358392496002206 pbc="F F F"
La       0.00000000       0.00000000       0.00000000       0.00000000       0.00000000       0.44857982
La       0.00000000       0.00000000       5.82121212       0.00000000       0.00000000      -0.44857982
2
Properties=species:S:1:pos:R:3:forces:R:3 energy=-1.3364383472748438 pbc="F F F"
La       0.00000000       0.00000000       0.00000000       0.00000000       0.00000000       0.27867252
La       0.00000000       0.00000000       5.88080808       0.00000000       0.00000000      -0.27867252
2
Properties=species:S:1:pos:R:3:forces:R:3 energy=-1.3251326379178452 pbc="F F F"
La       0.00000000       0.00000000       0.00000000       0.00000000       0.00000000       0.10758884
La       0.00000000       0.00000000       5.94040404       0.00000000       0.00000000      -0.10758884
2
Properties=species:S:1:pos:R:3:forces:R:3 energy=-1.3214630986167903 pbc="F F F"
La       0.00000000       0.00000000       0.00000000       0.00000000       0.00000000       0.03887901
La       0.00000000       0.00000000       6.00000000       0.00000000       0.00000000      -0.03887901
