2
Properties=species:S:1:pos:R:3:forces:R:3 energy=10385.174101818757 pbc="F F F"
La       0.00000000       0.00000000       0.00000000       0.00000000       0.00000000 -175973.31250000
La       0.00000000       0.00000000       0.18000000       0.00000000       0.00000000  175973.31250000
2
Properties=species:S:1:pos:R:3:forces:R:3 energy=4169.169219006256 pbc="F F F"
La       0.00000000       0.00000000       0.00000000       0.00000000       0.00000000  -59734.06640625
La       0.00000000       0.00000000       0.23878788       0.00000000       0.00000000   59734.06640625
2
Properties=species:S:1:pos:R:3:forces:R:3 energy=1893.637724865631 pbc="F F F"
La       0.00000000       0.00000000       0.00000000       0.00000000       0.00000000  -23885.62304688
La       0.00000000       0.00000000       0.29757576       0.00000000       0.00000000   23885.62304688
2
Properties=species:S:1:pos:R:3:forces:R:3 energy=939.9106130492247 pbc="F F F"
La       0.00000000       0.00000000       0.00000000       0.00000000       0.00000000  -10571.40625000
La       0.00000000       0.00000000       0.35636364       0.00000000       0.00000000   10571.40625000
2
Properties=species:S:1:pos:R:3:forces:R:3 energy=503.81283473524786 pbc="F F F"
La       0.00000000       0.00000000       0.00000000       0.00000000       0.00000000   -5022.72656250
La       0.00000000       0.00000000       0.41515152       0.00000000       0.00000000    5022.72656250
2
Properties=species:S:1:pos:R:3:forces:R:3 energy=291.246459002826 pbc="F F F"
La       0.00000000       0.00000000       0.00000000       0.00000000       0.00000000   -2524.06811523
La       0.00000000       0.00000000       0.47393939       0.00000000       0.00000000    2524.06811523
2
Properties=species:S:1:pos:R:3:forces:R:3 energy=182.04984951842698 pbc="F F F"
La       0.00000000       0.00000000       0.00000000       0.00000000       0.00000000   -1331.27661133
La       0.00000000       0.00000000       0.53272727       0.00000000       0.00000000    1331.27661133
2
Properties=species:S:1:pos:R:3:forces:R:3 energy=123.29548551742639 pbc="F F F"
La       0.00000000       0.00000000       0.00000000       0.00000000       0.00000000    -733.57885742
La       0.00000000       0.00000000       0.59151515       0.00000000       0.00000000     733.57885742
2
Properties=species:S:1:pos:R:3:forces:R:3 energy=90.3103247087966 pbc="F F F"
La       0.00000000       0.00000000       0.00000000       0.00000000       0.00000000    -421.07736206
La       0.00000000       0.00000000       0.65030303       0.00000000       0.00000000     421.07736206
2
Properties=species:S:1:pos:R:3:forces:R:3 energy=71.0310202360803 pbc="F F F"
La       0.00000000       0.00000000       0.00000000       0.00000000       0.00000000    -251.49563599
La       0.00000000       0.00000000       0.70909091       0.00000000       0.00000000     251.49563599
2
Properties=species:S:1:pos:R:3:forces:R:3 energy=59.297858366831555 pbc="F F F"
La       0.00000000       0.00000000       0.00000000       0.00000000       0.00000000    -156.59490967
La       0.00000000       0.00000000       0.76787879       0.00000000       0.00000000     156.59490967
2
Properties=species:S:1:pos:R:3:forces:R:3 energy=51.833583082751865 pbc="F F F"
La       0.00000000       0.00000000       0.00000000       0.00000000       0.00000000    -102.29985809
La       0.00000000       0.00000000       0.82666667       0.00000000       0.00000000     102.29985809
2
Properties=species:S:1:pos:R:3:forces:R:3 energy=46.825843182377156 pbc="F F F"
La       0.00000000       0.00000000       0.00000000       0.00000000       0.00000000     -70.92005920
La       0.00000000       0.00000000       0.88545455       0.00000000       0.00000000      70.92005920
2
Properties=species:S:1:pos:R:3:forces:R:3 energy=43.23487424873926 pbc="F F F"
La       0.00000000       0.00000000       0.00000000       0.00000000       0.00000000     -52.95669556
La       0.00000000       0.00000000       0.94424242       0.00000000       0.00000000      52.95669556
2
Properties=species:S:1:pos:R:3:forces:R:3 energy=40.43939564335038 pbc="F F F"
La       0.00000000       0.00000000       0.00000000       0.00000000       0.00000000     -43.24000931
La       0.00000000       0.00000000       1.00303030       0.00000000       0.00000000      43.24000931
2
Properties=species:S:1:pos:R:3:forces:R:3 energy=38.04332355343035 pbc="F F F"
La       0.00000000       0.00000000       0.00000000       0.00000000       0.00000000     -39.06156540
La       0.00000000       0.00000000       1.06181818       0.00000000       0.00000000      39.06156540
2
Properties=species:S:1:pos:R:3:forces:R:3 energy=35.76343960786139 pbc="F F F"
La       0.00000000       0.00000000       0.00000000       0.00000000       0.00000000     -39.14970779
La       0.00000000       0.00000000       1.12060606       0.00000000       0.00000000      39.14970779
2
Properties=species:S:1:pos:R:3:forces:R:3 energy=33.37173555538676 pbc="F F F"
La       0.00000000       0.00000000       0.00000000       0.00000000       0.00000000     -42.71068192
La       0.00000000       0.00000000       1.17939394       0.00000000       0.00000000      42.71068192
2
Properties=species:S:1:pos:R:3:forces:R:3 energy=30.699823067321113 pbc="F F F"
La       0.00000000       0.00000000       0.00000000       0.00000000       0.00000000     -48.39199448
La       0.00000000       0.00000000       1.23818182       0.00000000       0.00000000      48.39199448
2
Properties=species:S:1:pos:R:3:forces:R:3 energy=27.672997051441296 pbc="F F F"
La       0.00000000       0.00000000       0.00000000       0.00000000       0.00000000     -54.56780243
La       0.00000000       0.00000000       1.29696970       0.00000000       0.00000000      54.56780243
2
Properties=species:S:1:pos:R:3:forces:R:3 energy=24.294658348373485 pbc="F F F"
La       0.00000000       0.00000000       0.00000000       0.00000000       0.00000000     -60.16268921
La       0.00000000       0.00000000       1.35575758       0.00000000       0.00000000      60.16268921
2
Properties=species:S:1:pos:R:3:forces:R:3 energy=20.64608485609287 pbc="F F F"
La       0.00000000       0.00000000       0.00000000       0.00000000       0.00000000     -63.33934021
La       0.00000000       0.00000000       1.41454545       0.00000000       0.00000000      63.33934021
2
Properties=species:S:1:pos:R:3:forces:R:3 energy=16.941796126017024 pbc="F F F"
La       0.00000000       0.00000000       0.00000000       0.00000000       0.00000000     -61.81061554
La       0.00000000       0.00000000       1.47333333       0.00000000       0.00000000      61.81061554
2
Properties=species:S:1:pos:R:3:forces:R:3 energy=13.465092608611384 pbc="F F F"
La       0.00000000       0.00000000       0.00000000       0.00000000       0.00000000     -55.97491837
La       0.00000000       0.00000000       1.53212121       0.00000000       0.00000000      55.97491837
2
Properties=species:S:1:pos:R:3:forces:R:3 energy=10.386838497799571 pbc="F F F"
La       0.00000000       0.00000000       0.00000000       0.00000000       0.00000000     -48.73522949
La       0.00000000       0.00000000       1.59090909       0.00000000       0.00000000      48.73522949
2
Properties=species:S:1:pos:R:3:forces:R:3 energy=7.727695700511422 pbc="F F F"
La       0.00000000       0.00000000       0.00000000       0.00000000       0.00000000     -41.79504776
La       0.00000000       0.00000000       1.64969697       0.00000000       0.00000000      41.79504776
2
Properties=species:S:1:pos:R:3:forces:R:3 energy=5.470354627094734 pbc="F F F"
La       0.00000000       0.00000000       0.00000000       0.00000000       0.00000000     -34.98838806
La       0.00000000       0.00000000       1.70848485       0.00000000       0.00000000      34.98838806
2
Properties=species:S:1:pos:R:3:forces:R:3 energy=3.612240483608096 pbc="F F F"
La       0.00000000       0.00000000       0.00000000       0.00000000       0.00000000     -28.31551552
La       0.00000000       0.00000000       1.76727273       0.00000000       0.00000000      28.31551552
2
Properties=species:S:1:pos:R:3:forces:R:3 energy=2.117913390641398 pbc="F F F"
La       0.00000000       0.00000000       0.00000000       0.00000000       0.00000000     -22.80349731
La       0.00000000       0.00000000       1.82606061       0.00000000       0.00000000      22.80349731
2
Properties=species:S:1:pos:R:3:forces:R:3 energy=0.8977911825577324 pbc="F F F"
La       0.00000000       0.00000000       0.00000000       0.00000000       0.00000000     -18.94347000
La       0.00000000       0.00000000       1.88484848       0.00000000       0.00000000      18.94347000
2
Properties=species:S:1:pos:R:3:forces:R:3 energy=-0.1290330011202618 pbc="F F F"
La       0.00000000       0.00000000       0.00000000       0.00000000       0.00000000     -16.09560776
La       0.00000000       0.00000000       1.94363636       0.00000000       0.00000000      16.09560776
2
Properties=species:S:1:pos:R:3:forces:R:3 energy=-1.002874843129237 pbc="F F F"
La       0.00000000       0.00000000       0.00000000       0.00000000       0.00000000     -13.68188667
La       0.00000000       0.00000000       2.00242424       0.00000000       0.00000000      13.68188667
2
Properties=species:S:1:pos:R:3:forces:R:3 energy=-1.7428831245508518 pbc="F F F"
La       0.00000000       0.00000000       0.00000000       0.00000000       0.00000000     -11.54001045
La       0.00000000       0.00000000       2.06121212       0.00000000       0.00000000      11.54001045
2
Properties=species:S:1:pos:R:3:forces:R:3 energy=-2.3658320966282034 pbc="F F F"
La       0.00000000       0.00000000       0.00000000       0.00000000       0.00000000      -9.70947647
La       0.00000000       0.00000000       2.12000000       0.00000000       0.00000000       9.70947647
2
Properties=species:S:1:pos:R:3:forces:R:3 energy=-2.8909391721475584 pbc="F F F"
La       0.00000000       0.00000000       0.00000000       0.00000000       0.00000000      -8.20346451
La       0.00000000       0.00000000       2.17878788       0.00000000       0.00000000       8.20346451
2
Properties=species:S:1:pos:R:3:forces:R:3 energy=-3.334685021550072 pbc="F F F"
La       0.00000000       0.00000000       0.00000000       0.00000000       0.00000000      -6.91655779
La       0.00000000       0.00000000       2.23757576       0.00000000       0.00000000       6.91655779
2
Properties=species:S:1:pos:R:3:forces:R:3 energy=-3.705538169059218 pbc="F F F"
La       0.00000000       0.00000000       0.00000000       0.00000000       0.00000000      -5.70303440
La       0.00000000       0.00000000       2.29636364       0.00000000       0.00000000       5.70303440
2
Properties=species:S:1:pos:R:3:forces:R:3 energy=-4.005118021020438 pbc="F F F"
La       0.00000000       0.00000000       0.00000000       0.00000000       0.00000000      -4.48754835
La       0.00000000       0.00000000       2.35515152       0.00000000       0.00000000       4.48754835
2
Properties=species:S:1:pos:R:3:forces:R:3 energy=-4.233383026908621 pbc="F F F"
La       0.00000000       0.00000000       0.00000000       0.00000000       0.00000000      -3.28470993
La       0.00000000       0.00000000       2.41393939       0.00000000       0.00000000       3.28470993
2
Properties=species:S:1:pos:R:3:forces:R:3 energy=-4.392742556185147 pbc="F F F"
La       0.00000000       0.00000000       0.00000000       0.00000000       0.00000000      -2.15435433
La       0.00000000       0.00000000       2.47272727       0.00000000       0.00000000       2.15435433
2
Properties=species:S:1:pos:R:3:forces:R:3 energy=-4.489310361466726 pbc="F F F"
La       0.00000000       0.00000000       0.00000000       0.00000000       0.00000000      -1.15725803
La       0.00000000       0.00000000       2.53151515       0.00000000       0.00000000       1.15725803
2
Properties=species:S:1:pos:R:3:forces:R:3 energy=-4.532196556045001 pbc="F F F"
La       0.00000000       0.00000000       0.00000000       0.00000000       0.00000000      -0.33223715
La       0.00000000       0.00000000       2.59030303       0.00000000       0.00000000       0.33223715
2
Properties=species:S:1:pos:R:3:forces:R:3 energy=-4.5319957549910574 pbc="F F F"
La       0.00000000       0.00000000       0.00000000       0.00000000       0.00000000       0.30853254
La       0.00000000       0.00000000       2.64909091       0.00000000       0.00000000      -0.30853254
2
Properties=species:S:1:pos:R:3:forces:R:3 energy=-4.499376017305797 pbc="F F F"
La       0.00000000       0.00000000       0.00000000       0.00000000       0.00000000       0.77340347
La       0.00000000       0.00000000       2.70787879       0.00000000       0.00000000      -0.77340347
2
Properties=species:S:1:pos:R:3:forces:R:3 energy=-4.444115272064803 pbc="F F F"
La       0.00000000       0.00000000       0.00000000       0.00000000       0.00000000       1.08273220
La       0.00000000       0.00000000       2.76666667       0.00000000       0.00000000      -1.08273220
2
Properties=species:S:1:pos:R:3:forces:R:3 energy=-4.374602361353345 pbc="F F F"
La       0.00000000       0.00000000       0.00000000       0.00000000       0.00000000       1.26309431
La       0.00000000       0.00000000       2.82545455       0.00000000       0.00000000      -1.26309431
2
Properties=species:S:1:pos:R:3:forces:R:3 energy=-4.29753619236958 pbc="F F F"
La       0.00000000       0.00000000       0.00000000       0.00000000       0.00000000       1.34504735
La       0.00000000       0.00000000       2.88424242       0.00000000       0.00000000      -1.34504735
2
Properties=species:S:1:pos:R:3:forces:R:3 energy=-4.217731154521944 pbc="F F F"
La       0.00000000       0.00000000       0.00000000       0.00000000       0.00000000       1.36199427
La       0.00000000       0.00000000       2.94303030       0.00000000       0.00000000      -1.36199427
2
Properties=species:S:1:pos:R:3:forces:R:3 energy=-4.138011099861261 pbc="F F F"
La       0.00000000       0.00000000       0.00000000       0.00000000       0.00000000       1.34756434
La       0.00000000       0.00000000       3.00181818       0.00000000       0.00000000      -1.34756434
2
Properties=species:S:1:pos:R:3:forces:R:3 energy=-4.059328962523327 pbc="F F F"
La       0.00000000       0.00000000       0.00000000       0.00000000       0.00000000       1.33085930
La       0.00000000       0.00000000       3.06060606       0.00000000       0.00000000      -1.33085930
2
Properties=species:S:1:pos:R:3:forces:R:3 energy=-3.9811940061668016 pbc="F F F"
La       0.00000000       0.00000000       0.00000000       0.00000000       0.00000000       1.33112037
La       0.00000000       0.00000000       3.11939394       0.00000000       0.00000000      -1.33112037
2
Properties=species:S:1:pos:R:3:forces:R:3 energy=-3.9023698008753565 pbc="F F F"
La       0.00000000       0.00000000       0.00000000       0.00000000       0.00000000       1.35392857
La       0.00000000       0.00000000       3.17818182       0.00000000       0.00000000      -1.35392857
2
Properties=species:S:1:pos:R:3:forces:R:3 energy=-3.8217171742351765 pbc="F F F"
La       0.00000000       0.00000000       0.00000000       0.00000000       0.00000000       1.39104760
La       0.00000000       0.00000000       3.23696970       0.00000000       0.00000000      -1.39104760
2
Properties=species:S:1:pos:R:3:forces:R:3 energy=-3.7388742488311095 pbc="F F F"
La       0.00000000       0.00000000       0.00000000       0.00000000       0.00000000       1.42523551
La       0.00000000       0.00000000       3.29575758       0.00000000       0.00000000      -1.42523551
2
Properties=species:S:1:pos:R:3:forces:R:3 energy=-3.654550569434338 pbc="F F F"
La       0.00000000       0.00000000       0.00000000       0.00000000       0.00000000       1.43896294
La       0.00000000       0.00000000       3.35454545       0.00000000       0.00000000      -1.43896294
2
Properties=species:S:1:pos:R:3:forces:R:3 energy=-3.570278047646579 pbc="F F F"
La       0.00000000       0.00000000       0.00000000       0.00000000       0.00000000       1.42292023
La       0.00000000       0.00000000       3.41333333       0.00000000       0.00000000      -1.42292023
2
Properties=species:S:1:pos:R:3:forces:R:3 energy=-3.4877878951498578 pbc="F F F"
La       0.00000000       0.00000000       0.00000000       0.00000000       0.00000000       1.37970722
La       0.00000000       0.00000000       3.47212121       0.00000000       0.00000000      -1.37970722
2
Properties=species:S:1:pos:R:3:forces:R:3 energy=-3.4083596219524535 pbc="F F F"
La       0.00000000       0.00000000       0.00000000       0.00000000       0.00000000       1.32122672
La       0.00000000       0.00000000       3.53090909       0.00000000       0.00000000      -1.32122672
2
Properties=species:S:1:pos:R:3:forces:R:3 energy=-3.332448678212596 pbc="F F F"
La       0.00000000       0.00000000       0.00000000       0.00000000       0.00000000       1.26243293
La       0.00000000       0.00000000       3.58969697       0.00000000       0.00000000      -1.26243293
2
Properties=species:S:1:pos:R:3:forces:R:3 energy=-3.2596877031888187 pbc="F F F"
La       0.00000000       0.00000000       0.00000000       0.00000000       0.00000000       1.21564615
La       0.00000000       0.00000000       3.64848485       0.00000000       0.00000000      -1.21564615
2
Properties=species:S:1:pos:R:3:forces:R:3 energy=-3.189140773415852 pbc="F F F"
La       0.00000000       0.00000000       0.00000000       0.00000000       0.00000000       1.18797159
La       0.00000000       0.00000000       3.70727273       0.00000000       0.00000000      -1.18797159
2
Properties=species:S:1:pos:R:3:forces:R:3 energy=-3.1195867716672754 pbc="F F F"
La       0.00000000       0.00000000       0.00000000       0.00000000       0.00000000       1.18187678
La       0.00000000       0.00000000       3.76606061       0.00000000       0.00000000      -1.18187678
2
Properties=species:S:1:pos:R:3:forces:R:3 energy=-3.049769385251243 pbc="F F F"
La       0.00000000       0.00000000       0.00000000       0.00000000       0.00000000       1.19661891
La       0.00000000       0.00000000       3.82484848       0.00000000       0.00000000      -1.19661891
2
Properties=species:S:1:pos:R:3:forces:R:3 energy=-2.9785684729071535 pbc="F F F"
La       0.00000000       0.00000000       0.00000000       0.00000000       0.00000000       1.22770011
La       0.00000000       0.00000000       3.88363636       0.00000000       0.00000000      -1.22770011
2
Properties=species:S:1:pos:R:3:forces:R:3 energy=-2.90529710081941 pbc="F F F"
La       0.00000000       0.00000000       0.00000000       0.00000000       0.00000000       1.26496696
La       0.00000000       0.00000000       3.94242424       0.00000000       0.00000000      -1.26496696
2
Properties=species:S:1:pos:R:3:forces:R:3 energy=-2.830003432264389 pbc="F F F"
La       0.00000000       0.00000000       0.00000000       0.00000000       0.00000000       1.29404557
La       0.00000000       0.00000000       4.00121212       0.00000000       0.00000000      -1.29404557
2
Properties=species:S:1:pos:R:3:forces:R:3 energy=-2.753554441353591 pbc="F F F"
La       0.00000000       0.00000000       0.00000000       0.00000000       0.00000000       1.30271447
La       0.00000000       0.00000000       4.06000000       0.00000000       0.00000000      -1.30271447
2
Properties=species:S:1:pos:R:3:forces:R:3 energy=-2.6773368314491717 pbc="F F F"
La       0.00000000       0.00000000       0.00000000       0.00000000       0.00000000       1.28604519
La       0.00000000       0.00000000       4.11878788       0.00000000       0.00000000      -1.28604519
2
Properties=species:S:1:pos:R:3:forces:R:3 energy=-2.6028033672259885 pbc="F F F"
La       0.00000000       0.00000000       0.00000000       0.00000000       0.00000000       1.24617100
La       0.00000000       0.00000000       4.17757576       0.00000000       0.00000000      -1.24617100
2
Properties=species:S:1:pos:R:3:forces:R:3 energy=-2.531154282408677 pbc="F F F"
La       0.00000000       0.00000000       0.00000000       0.00000000       0.00000000       1.18908811
La       0.00000000       0.00000000       4.23636364       0.00000000       0.00000000      -1.18908811
2
Properties=species:S:1:pos:R:3:forces:R:3 energy=-2.46319158953782 pbc="F F F"
La       0.00000000       0.00000000       0.00000000       0.00000000       0.00000000       1.12191844
La       0.00000000       0.00000000       4.29515152       0.00000000       0.00000000      -1.12191844
2
Properties=species:S:1:pos:R:3:forces:R:3 energy=-2.3993074513813766 pbc="F F F"
La       0.00000000       0.00000000       0.00000000       0.00000000       0.00000000       1.05153179
La       0.00000000       0.00000000       4.35393939       0.00000000       0.00000000      -1.05153179
2
Properties=species:S:1:pos:R:3:forces:R:3 energy=-2.3395001839110807 pbc="F F F"
La       0.00000000       0.00000000       0.00000000       0.00000000       0.00000000       0.98407638
La       0.00000000       0.00000000       4.41272727       0.00000000       0.00000000      -0.98407638
2
Properties=species:S:1:pos:R:3:forces:R:3 energy=-2.2834432061205603 pbc="F F F"
La       0.00000000       0.00000000       0.00000000       0.00000000       0.00000000       0.92471766
La       0.00000000       0.00000000       4.47151515       0.00000000       0.00000000      -0.92471766
2
Properties=species:S:1:pos:R:3:forces:R:3 energy=-2.230539108439438 pbc="F F F"
La       0.00000000       0.00000000       0.00000000       0.00000000       0.00000000       0.87734777
La       0.00000000       0.00000000       4.53030303       0.00000000       0.00000000      -0.87734777
2
Properties=species:S:1:pos:R:3:forces:R:3 energy=-2.180008182758648 pbc="F F F"
La       0.00000000       0.00000000       0.00000000       0.00000000       0.00000000       0.84423214
La       0.00000000       0.00000000       4.58909091       0.00000000       0.00000000      -0.84423214
2
Properties=species:S:1:pos:R:3:forces:R:3 energy=-2.130993098874415 pbc="F F F"
La       0.00000000       0.00000000       0.00000000       0.00000000       0.00000000       0.82562131
La       0.00000000       0.00000000       4.64787879       0.00000000       0.00000000      -0.82562131
2
Properties=species:S:1:pos:R:3:forces:R:3 energy=-2.0826887632584583 pbc="F F F"
La       0.00000000       0.00000000       0.00000000       0.00000000       0.00000000       0.81946802
La       0.00000000       0.00000000       4.70666667       0.00000000       0.00000000      -0.81946802
2
Properties=species:S:1:pos:R:3:forces:R:3 energy=-2.034481707563653 pbc="F F F"
La       0.00000000       0.00000000       0.00000000       0.00000000       0.00000000       0.82148337
La       0.00000000       0.00000000       4.76545455       0.00000000       0.00000000      -0.82148337
2
Properties=species:S:1:pos:R:3:forces:R:3 energy=-1.986056968175717 pbc="F F F"
La       0.00000000       0.00000000       0.00000000       0.00000000       0.00000000       0.82576472
La       0.00000000       0.00000000       4.82424242       0.00000000       0.00000000      -0.82576472
2
Properties=species:S:1:pos:R:3:forces:R:3 energy=-1.9374723397613618 pbc="F F F"
La       0.00000000       0.00000000       0.00000000       0.00000000       0.00000000       0.82613152
La       0.00000000       0.00000000       4.88303030       0.00000000       0.00000000      -0.82613152
2
Properties=species:S:1:pos:R:3:forces:R:3 energy=-1.8890921582597442 pbc="F F F"
La       0.00000000       0.00000000       0.00000000       0.00000000       0.00000000       0.81804472
La       0.00000000       0.00000000       4.94181818       0.00000000       0.00000000      -0.81804472
2
Properties=species:S:1:pos:R:3:forces:R:3 energy=-1.8414791285396417 pbc="F F F"
La       0.00000000       0.00000000       0.00000000       0.00000000       0.00000000       0.80021399
La       0.00000000       0.00000000       5.00060606       0.00000000       0.00000000      -0.80021399
2
Properties=species:S:1:pos:R:3:forces:R:3 energy=-1.7951503675081373 pbc="F F F"
La       0.00000000       0.00000000       0.00000000       0.00000000       0.00000000       0.77502596
La       0.00000000       0.00000000       5.05939394       0.00000000       0.00000000      -0.77502596
2
Properties=species:S:1:pos:R:3:forces:R:3 energy=-1.7504171338044046 pbc="F F F"
La       0.00000000       0.00000000       0.00000000       0.00000000       0.00000000       0.74654752
La       0.00000000       0.00000000       5.11818182       0.00000000       0.00000000      -0.74654752
2
Properties=species:S:1:pos:R:3:forces:R:3 energy=-1.7074092426973924 pbc="F F F"
La       0.00000000       0.00000000       0.00000000       0.00000000       0.00000000       0.71618086
La       0.00000000       0.00000000       5.17696970       0.00000000       0.00000000      -0.71618086
2
Properties=species:S:1:pos:R:3:forces:R:3 energy=-1.6663529112615467 pbc="F F F"
La       0.00000000       0.00000000       0.00000000       0.00000000       0.00000000       0.67868716
La       0.00000000       0.00000000       5.23575758       0.00000000       0.00000000      -0.67868716
2
Properties=species:S:1:pos:R:3:forces:R:3 energy=-1.6279259196962959 pbc="F F F"
La       0.00000000       0.00000000       0.00000000       0.00000000       0.00000000       0.62583703
La       0.00000000       0.00000000       5.29454545       0.00000000       0.00000000      -0.62583703
2
Properties=species:S:1:pos:R:3:forces:R:3 energy=-1.5929420401619845 pbc="F F F"
La       0.00000000       0.00000000       0.00000000       0.00000000       0.00000000       0.56541193
La       0.00000000       0.00000000       5.35333333       0.00000000       0.00000000      -0.56541193
2
Properties=species:S:1:pos:R:3:forces:R:3 energy=-1.5608497506652326 pbc="F F F"
La       0.00000000       0.00000000       0.00000000       0.00000000       0.00000000       0.53467017
La       0.00000000       0.00000000       5.41212121       0.00000000       0.00000000      -0.53467017
2
Properties=species:S:1:pos:R:3:forces:R:3 energy=-1.5291615750221634 pbc="F F F"
La       0.00000000       0.00000000       0.00000000       0.00000000       0.00000000       0.54711282
La       0.00000000       0.00000000       5.47090909       0.00000000       0.00000000      -0.54711282
2
Properties=species:S:1:pos:R:3:forces:R:3 energy=-1.4968904150066875 pbc="F F F"
La       0.00000000       0.00000000       0.00000000       0.00000000       0.00000000       0.54201579
La       0.00000000       0.00000000       5.52969697       0.00000000       0.00000000      -0.54201579
2
Properties=species:S:1:pos:R:3:forces:R:3 energy=-1.466498125222614 pbc="F F F"
La       0.00000000       0.00000000       0.00000000       0.00000000       0.00000000       0.48618278
La       0.00000000       0.00000000       5.58848485       0.00000000       0.00000000      -0.48618278
2
Properties=species:S:1:pos:R:3:forces:R:3 energy=-1.439652623573555 pbc="F F F"
La       0.00000000       0.00000000       0.00000000       0.00000000       0.00000000       0.43474409
La       0.00000000       0.00000000       5.64727273       0.00000000       0.00000000      -0.43474409
2
Properties=species:S:1:pos:R:3:forces:R:3 energy=-1.4139374234316882 pbc="F F F"
La       0.00000000       0.00000000       0.00000000       0.00000000       0.00000000       0.45331040
La       0.00000000       0.00000000       5.70606061       0.00000000       0.00000000      -0.45331040
2
Properties=species:S:1:pos:R:3:forces:R:3 energy=-1.3856803445338615 pbc="F F F"
La       0.00000000       0.00000000       0.00000000       0.00000000       0.00000000       0.49966735
La       0.00000000       0.00000000       5.76484848       0.00000000       0.00000000      -0.49966735
2
Properties=species:S:1:pos:R:3:forces:R:3 energy=-1.3572984067917921 pbc="F F F"
La       0.00000000       0.00000000       0.00000000       0.00000000       0.00000000       0.44345188
La       0.00000000       0.00000000       5.82363636       0.00000000       0.00000000      -0.44345188
2
Properties=species:S:1:pos:R:3:forces:R:3 energy=-1.3359439150336763 pbc="F F F"
La       0.00000000       0.00000000       0.00000000       0.00000000       0.00000000       0.27360296
La       0.00000000       0.00000000       5.88242424       0.00000000       0.00000000      -0.27360296
2
Properties=species:S:1:pos:R:3:forces:R:3 energy=-1.3250617525113921 pbc="F F F"
La       0.00000000       0.00000000       0.00000000       0.00000000       0.00000000       0.10569350
La       0.00000000       0.00000000       5.94121212       0.00000000       0.00000000      -0.10569350
2
Properties=species:S:1:pos:R:3:forces:R:3 energy=-1.3214630986167903 pbc="F F F"
La       0.00000000       0.00000000       0.00000000       0.00000000       0.00000000       0.03887901
La       0.00000000       0.00000000       6.00000000       0.00000000       0.00000000      -0.03887901
