2
Properties=species:S:1:pos:R:3:forces:R:3 energy=121.55741892633478 pbc="F F F"
Li       0.00000000       0.00000000       0.00000000       0.00000000       0.00000000   -1432.57128906
Li       0.00000000       0.00000000       0.18000000       0.00000000       0.00000000    1432.57128906
2
Properties=species:S:1:pos:R:3:forces:R:3 energy=65.06097422418634 pbc="F F F"
Li       0.00000000       0.00000000       0.00000000       0.00000000       0.00000000    -625.73577881
Li       0.00000000       0.00000000       0.23878788       0.00000000       0.00000000     625.73577881
2
Properties=species:S:1:pos:R:3:forces:R:3 energy=38.80423365411797 pbc="F F F"
Li       0.00000000       0.00000000       0.00000000       0.00000000       0.00000000    -311.57006836
Li       0.00000000       0.00000000       0.29757576       0.00000000       0.00000000     311.57006836
2
Properties=species:S:1:pos:R:3:forces:R:3 energy=25.16690836883665 pbc="F F F"
Li       0.00000000       0.00000000       0.00000000       0.00000000       0.00000000    -169.59049988
Li       0.00000000       0.00000000       0.35636364       0.00000000       0.00000000     169.59049988
2
Properties=species:S:1:pos:R:3:forces:R:3 energy=17.50964366411573 pbc="F F F"
Li       0.00000000       0.00000000       0.00000000       0.00000000       0.00000000     -98.53794098
Li       0.00000000       0.00000000       0.41515152       0.00000000       0.00000000      98.53794098
2
Properties=species:S:1:pos:R:3:forces:R:3 energy=12.952320216224738 pbc="F F F"
Li       0.00000000       0.00000000       0.00000000       0.00000000       0.00000000     -60.23144150
Li       0.00000000       0.00000000       0.47393939       0.00000000       0.00000000      60.23144150
2
Properties=species:S:1:pos:R:3:forces:R:3 energy=10.106978548045856 pbc="F F F"
Li       0.00000000       0.00000000       0.00000000       0.00000000       0.00000000     -38.56666565
Li       0.00000000       0.00000000       0.53272727       0.00000000       0.00000000      38.56666565
2
Properties=species:S:1:pos:R:3:forces:R:3 energy=8.237736858910893 pbc="F F F"
Li       0.00000000       0.00000000       0.00000000       0.00000000       0.00000000     -26.20634460
Li       0.00000000       0.00000000       0.59151515       0.00000000       0.00000000      26.20634460
2
Properties=species:S:1:pos:R:3:forces:R:3 energy=6.914372168610745 pbc="F F F"
Li       0.00000000       0.00000000       0.00000000       0.00000000       0.00000000     -19.58463669
Li       0.00000000       0.00000000       0.65030303       0.00000000       0.00000000      19.58463669
2
Properties=species:S:1:pos:R:3:forces:R:3 energy=5.857964309836035 pbc="F F F"
Li       0.00000000       0.00000000       0.00000000       0.00000000       0.00000000     -16.93113899
Li       0.00000000       0.00000000       0.70909091       0.00000000       0.00000000      16.93113899
2
Properties=species:S:1:pos:R:3:forces:R:3 energy=4.863093751684957 pbc="F F F"
Li       0.00000000       0.00000000       0.00000000       0.00000000       0.00000000     -17.32109451
Li       0.00000000       0.00000000       0.76787879       0.00000000       0.00000000      17.32109451
2
Properties=species:S:1:pos:R:3:forces:R:3 energy=3.8072305248922027 pbc="F F F"
Li       0.00000000       0.00000000       0.00000000       0.00000000       0.00000000     -18.40088081
Li       0.00000000       0.00000000       0.82666667       0.00000000       0.00000000      18.40088081
2
Properties=species:S:1:pos:R:3:forces:R:3 energy=2.7331009267697577 pbc="F F F"
Li       0.00000000       0.00000000       0.00000000       0.00000000       0.00000000     -17.90279007
Li       0.00000000       0.00000000       0.88545455       0.00000000       0.00000000      17.90279007
2
Properties=species:S:1:pos:R:3:forces:R:3 energy=1.726495133642671 pbc="F F F"
Li       0.00000000       0.00000000       0.00000000       0.00000000       0.00000000     -16.13569832
Li       0.00000000       0.00000000       0.94424242       0.00000000       0.00000000      16.13569832
2
Properties=species:S:1:pos:R:3:forces:R:3 energy=0.8597742292254494 pbc="F F F"
Li       0.00000000       0.00000000       0.00000000       0.00000000       0.00000000     -13.15839005
Li       0.00000000       0.00000000       1.00303030       0.00000000       0.00000000      13.15839005
2
Properties=species:S:1:pos:R:3:forces:R:3 energy=0.20430216796232992 pbc="F F F"
Li       0.00000000       0.00000000       0.00000000       0.00000000       0.00000000      -8.90070152
Li       0.00000000       0.00000000       1.06181818       0.00000000       0.00000000       8.90070152
2
Properties=species:S:1:pos:R:3:forces:R:3 energy=-0.1722649687733491 pbc="F F F"
Li       0.00000000       0.00000000       0.00000000       0.00000000       0.00000000      -4.06497765
Li       0.00000000       0.00000000       1.12060606       0.00000000       0.00000000       4.06497765
2
Properties=species:S:1:pos:R:3:forces:R:3 energy=-0.31840698852483273 pbc="F F F"
Li       0.00000000       0.00000000       0.00000000       0.00000000       0.00000000      -1.31249261
Li       0.00000000       0.00000000       1.17939394       0.00000000       0.00000000       1.31249261
2
Properties=species:S:1:pos:R:3:forces:R:3 energy=-0.36063507865336897 pbc="F F F"
Li       0.00000000       0.00000000       0.00000000       0.00000000       0.00000000      -0.31594431
Li       0.00000000       0.00000000       1.23818182       0.00000000       0.00000000       0.31594431
2
Properties=species:S:1:pos:R:3:forces:R:3 energy=-0.37015935155515456 pbc="F F F"
Li       0.00000000       0.00000000       0.00000000       0.00000000       0.00000000      -0.06912784
Li       0.00000000       0.00000000       1.29696970       0.00000000       0.00000000       0.06912784
2
Properties=species:S:1:pos:R:3:forces:R:3 energy=-0.3705746125152542 pbc="F F F"
Li       0.00000000       0.00000000       0.00000000       0.00000000       0.00000000       0.05920263
Li       0.00000000       0.00000000       1.35575758       0.00000000       0.00000000      -0.05920263
2
Properties=species:S:1:pos:R:3:forces:R:3 energy=-0.3646776297998547 pbc="F F F"
Li       0.00000000       0.00000000       0.00000000       0.00000000       0.00000000       0.10388296
Li       0.00000000       0.00000000       1.41454545       0.00000000       0.00000000      -0.10388296
2
Properties=species:S:1:pos:R:3:forces:R:3 energy=-0.364183502394461 pbc="F F F"
Li       0.00000000       0.00000000       0.00000000       0.00000000       0.00000000      -0.13314185
Li       0.00000000       0.00000000       1.47333333       0.00000000       0.00000000       0.13314185
2
Properties=species:S:1:pos:R:3:forces:R:3 energy=-0.3835444811106651 pbc="F F F"
Li       0.00000000       0.00000000       0.00000000       0.00000000       0.00000000      -0.53238654
Li       0.00000000       0.00000000       1.53212121       0.00000000       0.00000000       0.53238654
2
Properties=species:S:1:pos:R:3:forces:R:3 energy=-0.4259489126801738 pbc="F F F"
Li       0.00000000       0.00000000       0.00000000       0.00000000       0.00000000      -0.89628720
Li       0.00000000       0.00000000       1.59090909       0.00000000       0.00000000       0.89628720
2
Properties=species:S:1:pos:R:3:forces:R:3 energy=-0.48751143548712994 pbc="F F F"
Li       0.00000000       0.00000000       0.00000000       0.00000000       0.00000000      -1.19088256
Li       0.00000000       0.00000000       1.64969697       0.00000000       0.00000000       1.19088256
2
Properties=species:S:1:pos:R:3:forces:R:3 energy=-0.5656522160777587 pbc="F F F"
Li       0.00000000       0.00000000       0.00000000       0.00000000       0.00000000      -1.46708548
Li       0.00000000       0.00000000       1.70848485       0.00000000       0.00000000       1.46708548
2
Properties=species:S:1:pos:R:3:forces:R:3 energy=-0.659744169363484 pbc="F F F"
Li       0.00000000       0.00000000       0.00000000       0.00000000       0.00000000      -1.72798300
Li       0.00000000       0.00000000       1.76727273       0.00000000       0.00000000       1.72798300
2
Properties=species:S:1:pos:R:3:forces:R:3 energy=-0.767561494181576 pbc="F F F"
Li       0.00000000       0.00000000       0.00000000       0.00000000       0.00000000      -1.92515421
Li       0.00000000       0.00000000       1.82606061       0.00000000       0.00000000       1.92515421
2
Properties=species:S:1:pos:R:3:forces:R:3 energy=-0.8840266694964044 pbc="F F F"
Li       0.00000000       0.00000000       0.00000000       0.00000000       0.00000000      -2.01793838
Li       0.00000000       0.00000000       1.88484848       0.00000000       0.00000000       2.01793838
2
Properties=species:S:1:pos:R:3:forces:R:3 energy=-1.0025663234357671 pbc="F F F"
Li       0.00000000       0.00000000       0.00000000       0.00000000       0.00000000      -1.99624801
Li       0.00000000       0.00000000       1.94363636       0.00000000       0.00000000       1.99624801
2
Properties=species:S:1:pos:R:3:forces:R:3 energy=-1.1167269744106827 pbc="F F F"
Li       0.00000000       0.00000000       0.00000000       0.00000000       0.00000000      -1.87244439
Li       0.00000000       0.00000000       2.00242424       0.00000000       0.00000000       1.87244439
2
Properties=species:S:1:pos:R:3:forces:R:3 energy=-1.22122586100278 pbc="F F F"
Li       0.00000000       0.00000000       0.00000000       0.00000000       0.00000000      -1.67261362
Li       0.00000000       0.00000000       2.06121212       0.00000000       0.00000000       1.67261362
2
Properties=species:S:1:pos:R:3:forces:R:3 energy=-1.3125274186656744 pbc="F F F"
Li       0.00000000       0.00000000       0.00000000       0.00000000       0.00000000      -1.42886913
Li       0.00000000       0.00000000       2.12000000       0.00000000       0.00000000       1.42886913
2
Properties=species:S:1:pos:R:3:forces:R:3 energy=-1.3889411305448207 pbc="F F F"
Li       0.00000000       0.00000000       0.00000000       0.00000000       0.00000000      -1.17026615
Li       0.00000000       0.00000000       2.17878788       0.00000000       0.00000000       1.17026615
2
Properties=species:S:1:pos:R:3:forces:R:3 energy=-1.450236856107196 pbc="F F F"
Li       0.00000000       0.00000000       0.00000000       0.00000000       0.00000000      -0.91718382
Li       0.00000000       0.00000000       2.23757576       0.00000000       0.00000000       0.91718382
2
Properties=species:S:1:pos:R:3:forces:R:3 energy=-1.4971216829260336 pbc="F F F"
Li       0.00000000       0.00000000       0.00000000       0.00000000       0.00000000      -0.68134803
Li       0.00000000       0.00000000       2.29636364       0.00000000       0.00000000       0.68134803
2
Properties=species:S:1:pos:R:3:forces:R:3 energy=-1.53080589749694 pbc="F F F"
Li       0.00000000       0.00000000       0.00000000       0.00000000       0.00000000      -0.46883366
Li       0.00000000       0.00000000       2.35515152       0.00000000       0.00000000       0.46883366
2
Properties=species:S:1:pos:R:3:forces:R:3 energy=-1.5527648402594494 pbc="F F F"
Li       0.00000000       0.00000000       0.00000000       0.00000000       0.00000000      -0.28282312
Li       0.00000000       0.00000000       2.41393939       0.00000000       0.00000000       0.28282312
2
Properties=species:S:1:pos:R:3:forces:R:3 energy=-1.5646099301533118 pbc="F F F"
Li       0.00000000       0.00000000       0.00000000       0.00000000       0.00000000      -0.12489735
Li       0.00000000       0.00000000       2.47272727       0.00000000       0.00000000       0.12489735
2
Properties=species:S:1:pos:R:3:forces:R:3 energy=-1.5680017830613178 pbc="F F F"
Li       0.00000000       0.00000000       0.00000000       0.00000000       0.00000000       0.00491670
Li       0.00000000       0.00000000       2.53151515       0.00000000       0.00000000      -0.00491670
2
Properties=species:S:1:pos:R:3:forces:R:3 energy=-1.5645481865926805 pbc="F F F"
Li       0.00000000       0.00000000       0.00000000       0.00000000       0.00000000       0.10845307
Li       0.00000000       0.00000000       2.59030303       0.00000000       0.00000000      -0.10845307
2
Properties=species:S:1:pos:R:3:forces:R:3 energy=-1.5556935584980236 pbc="F F F"
Li       0.00000000       0.00000000       0.00000000       0.00000000       0.00000000       0.18940821
Li       0.00000000       0.00000000       2.64909091       0.00000000       0.00000000      -0.18940821
2
Properties=species:S:1:pos:R:3:forces:R:3 energy=-1.5426276484015484 pbc="F F F"
Li       0.00000000       0.00000000       0.00000000       0.00000000       0.00000000       0.25253883
Li       0.00000000       0.00000000       2.70787879       0.00000000       0.00000000      -0.25253883
2
Properties=species:S:1:pos:R:3:forces:R:3 energy=-1.5262563149357369 pbc="F F F"
Li       0.00000000       0.00000000       0.00000000       0.00000000       0.00000000       0.30262274
Li       0.00000000       0.00000000       2.76666667       0.00000000       0.00000000      -0.30262274
2
Properties=species:S:1:pos:R:3:forces:R:3 energy=-1.507232113431016 pbc="F F F"
Li       0.00000000       0.00000000       0.00000000       0.00000000       0.00000000       0.34319142
Li       0.00000000       0.00000000       2.82545455       0.00000000       0.00000000      -0.34319142
2
Properties=species:S:1:pos:R:3:forces:R:3 energy=-1.4860695057096527 pbc="F F F"
Li       0.00000000       0.00000000       0.00000000       0.00000000       0.00000000       0.37521985
Li       0.00000000       0.00000000       2.88424242       0.00000000       0.00000000      -0.37521985
2
Properties=species:S:1:pos:R:3:forces:R:3 energy=-1.4633379830213575 pbc="F F F"
Li       0.00000000       0.00000000       0.00000000       0.00000000       0.00000000       0.39568979
Li       0.00000000       0.00000000       2.94303030       0.00000000       0.00000000      -0.39568979
2
Properties=species:S:1:pos:R:3:forces:R:3 energy=-1.4399379093595406 pbc="F F F"
Li       0.00000000       0.00000000       0.00000000       0.00000000       0.00000000       0.39595389
Li       0.00000000       0.00000000       3.00181818       0.00000000       0.00000000      -0.39595389
2
Properties=species:S:1:pos:R:3:forces:R:3 energy=-1.4174526900119548 pbc="F F F"
Li       0.00000000       0.00000000       0.00000000       0.00000000       0.00000000       0.36217993
Li       0.00000000       0.00000000       3.06060606       0.00000000       0.00000000      -0.36217993
2
Properties=species:S:1:pos:R:3:forces:R:3 energy=-1.398179650203462 pbc="F F F"
Li       0.00000000       0.00000000       0.00000000       0.00000000       0.00000000       0.28761613
Li       0.00000000       0.00000000       3.11939394       0.00000000       0.00000000      -0.28761613
2
Properties=species:S:1:pos:R:3:forces:R:3 energy=-1.3838642167981388 pbc="F F F"
Li       0.00000000       0.00000000       0.00000000       0.00000000       0.00000000       0.20312011
Li       0.00000000       0.00000000       3.17818182       0.00000000       0.00000000      -0.20312011
2
Properties=species:S:1:pos:R:3:forces:R:3 energy=-1.3731376509226685 pbc="F F F"
Li       0.00000000       0.00000000       0.00000000       0.00000000       0.00000000       0.17620429
Li       0.00000000       0.00000000       3.23696970       0.00000000       0.00000000      -0.17620429
2
Properties=species:S:1:pos:R:3:forces:R:3 energy=-1.3614501064984634 pbc="F F F"
Li       0.00000000       0.00000000       0.00000000       0.00000000       0.00000000       0.23296306
Li       0.00000000       0.00000000       3.29575758       0.00000000       0.00000000      -0.23296306
2
Properties=species:S:1:pos:R:3:forces:R:3 energy=-1.3449957471929717 pbc="F F F"
Li       0.00000000       0.00000000       0.00000000       0.00000000       0.00000000       0.32811201
Li       0.00000000       0.00000000       3.35454545       0.00000000       0.00000000      -0.32811201
2
Properties=species:S:1:pos:R:3:forces:R:3 energy=-1.3231378146302877 pbc="F F F"
Li       0.00000000       0.00000000       0.00000000       0.00000000       0.00000000       0.41097087
Li       0.00000000       0.00000000       3.41333333       0.00000000       0.00000000      -0.41097087
2
Properties=species:S:1:pos:R:3:forces:R:3 energy=-1.2972856528224541 pbc="F F F"
Li       0.00000000       0.00000000       0.00000000       0.00000000       0.00000000       0.46338743
Li       0.00000000       0.00000000       3.47212121       0.00000000       0.00000000      -0.46338743
2
Properties=species:S:1:pos:R:3:forces:R:3 energy=-1.269190240348601 pbc="F F F"
Li       0.00000000       0.00000000       0.00000000       0.00000000       0.00000000       0.48863158
Li       0.00000000       0.00000000       3.53090909       0.00000000       0.00000000      -0.48863158
2
Properties=species:S:1:pos:R:3:forces:R:3 energy=-1.2401922961212768 pbc="F F F"
Li       0.00000000       0.00000000       0.00000000       0.00000000       0.00000000       0.49556437
Li       0.00000000       0.00000000       3.58969697       0.00000000       0.00000000      -0.49556437
2
Properties=species:S:1:pos:R:3:forces:R:3 energy=-1.211128572101332 pbc="F F F"
Li       0.00000000       0.00000000       0.00000000       0.00000000       0.00000000       0.49196169
Li       0.00000000       0.00000000       3.64848485       0.00000000       0.00000000      -0.49196169
2
Properties=species:S:1:pos:R:3:forces:R:3 energy=-1.1824492440953493 pbc="F F F"
Li       0.00000000       0.00000000       0.00000000       0.00000000       0.00000000       0.48320431
Li       0.00000000       0.00000000       3.70727273       0.00000000       0.00000000      -0.48320431
2
Properties=species:S:1:pos:R:3:forces:R:3 energy=-1.1543500389093317 pbc="F F F"
Li       0.00000000       0.00000000       0.00000000       0.00000000       0.00000000       0.47262427
Li       0.00000000       0.00000000       3.76606061       0.00000000       0.00000000      -0.47262427
2
Properties=species:S:1:pos:R:3:forces:R:3 energy=-1.1268784240140468 pbc="F F F"
Li       0.00000000       0.00000000       0.00000000       0.00000000       0.00000000       0.46209309
Li       0.00000000       0.00000000       3.82484848       0.00000000       0.00000000      -0.46209309
2
Properties=species:S:1:pos:R:3:forces:R:3 energy=-1.1000004481093055 pbc="F F F"
Li       0.00000000       0.00000000       0.00000000       0.00000000       0.00000000       0.45248657
Li       0.00000000       0.00000000       3.88363636       0.00000000       0.00000000      -0.45248657
2
Properties=species:S:1:pos:R:3:forces:R:3 energy=-1.0736540973165483 pbc="F F F"
Li       0.00000000       0.00000000       0.00000000       0.00000000       0.00000000       0.44401598
Li       0.00000000       0.00000000       3.94242424       0.00000000       0.00000000      -0.44401598
2
Properties=species:S:1:pos:R:3:forces:R:3 energy=-1.0477775752372558 pbc="F F F"
Li       0.00000000       0.00000000       0.00000000       0.00000000       0.00000000       0.43645072
Li       0.00000000       0.00000000       4.00121212       0.00000000       0.00000000      -0.43645072
2
Properties=species:S:1:pos:R:3:forces:R:3 energy=-1.0223308249668595 pbc="F F F"
Li       0.00000000       0.00000000       0.00000000       0.00000000       0.00000000       0.42927706
Li       0.00000000       0.00000000       4.06000000       0.00000000       0.00000000      -0.42927706
2
Properties=species:S:1:pos:R:3:forces:R:3 energy=-0.9973099996409744 pbc="F F F"
Li       0.00000000       0.00000000       0.00000000       0.00000000       0.00000000       0.42184201
Li       0.00000000       0.00000000       4.11878788       0.00000000       0.00000000      -0.42184201
2
Properties=species:S:1:pos:R:3:forces:R:3 energy=-0.97275081657508 pbc="F F F"
Li       0.00000000       0.00000000       0.00000000       0.00000000       0.00000000       0.41345924
Li       0.00000000       0.00000000       4.17757576       0.00000000       0.00000000      -0.41345924
2
Properties=species:S:1:pos:R:3:forces:R:3 energy=-0.9487273129988165 pbc="F F F"
Li       0.00000000       0.00000000       0.00000000       0.00000000       0.00000000       0.40354013
Li       0.00000000       0.00000000       4.23636364       0.00000000       0.00000000      -0.40354013
2
Properties=species:S:1:pos:R:3:forces:R:3 energy=-0.9253418697457036 pbc="F F F"
Li       0.00000000       0.00000000       0.00000000       0.00000000       0.00000000       0.39169943
Li       0.00000000       0.00000000       4.29515152       0.00000000       0.00000000      -0.39169943
2
Properties=species:S:1:pos:R:3:forces:R:3 energy=-0.902712897690423 pbc="F F F"
Li       0.00000000       0.00000000       0.00000000       0.00000000       0.00000000       0.37783873
Li       0.00000000       0.00000000       4.35393939       0.00000000       0.00000000      -0.37783873
2
Properties=species:S:1:pos:R:3:forces:R:3 energy=-0.8809533420628332 pbc="F F F"
Li       0.00000000       0.00000000       0.00000000       0.00000000       0.00000000       0.36216435
Li       0.00000000       0.00000000       4.41272727       0.00000000       0.00000000      -0.36216435
2
Properties=species:S:1:pos:R:3:forces:R:3 energy=-0.8601574957342919 pbc="F F F"
Li       0.00000000       0.00000000       0.00000000       0.00000000       0.00000000       0.34513330
Li       0.00000000       0.00000000       4.47151515       0.00000000       0.00000000      -0.34513330
2
Properties=species:S:1:pos:R:3:forces:R:3 energy=-0.8403886556405531 pbc="F F F"
Li       0.00000000       0.00000000       0.00000000       0.00000000       0.00000000       0.32733300
Li       0.00000000       0.00000000       4.53030303       0.00000000       0.00000000      -0.32733300
2
Properties=species:S:1:pos:R:3:forces:R:3 energy=-0.8216752994129533 pbc="F F F"
Li       0.00000000       0.00000000       0.00000000       0.00000000       0.00000000       0.30932003
Li       0.00000000       0.00000000       4.58909091       0.00000000       0.00000000      -0.30932003
2
Properties=species:S:1:pos:R:3:forces:R:3 energy=-0.8040167464037703 pbc="F F F"
Li       0.00000000       0.00000000       0.00000000       0.00000000       0.00000000       0.29149354
Li       0.00000000       0.00000000       4.64787879       0.00000000       0.00000000      -0.29149354
2
Properties=species:S:1:pos:R:3:forces:R:3 energy=-0.7873954043168848 pbc="F F F"
Li       0.00000000       0.00000000       0.00000000       0.00000000       0.00000000       0.27402490
Li       0.00000000       0.00000000       4.70666667       0.00000000       0.00000000      -0.27402490
2
Properties=species:S:1:pos:R:3:forces:R:3 energy=-0.7717907420372337 pbc="F F F"
Li       0.00000000       0.00000000       0.00000000       0.00000000       0.00000000       0.25691268
Li       0.00000000       0.00000000       4.76545455       0.00000000       0.00000000      -0.25691268
2
Properties=species:S:1:pos:R:3:forces:R:3 energy=-0.7571829874546915 pbc="F F F"
Li       0.00000000       0.00000000       0.00000000       0.00000000       0.00000000       0.24008477
Li       0.00000000       0.00000000       4.82424242       0.00000000       0.00000000      -0.24008477
2
Properties=species:S:1:pos:R:3:forces:R:3 energy=-0.7435572641112417 pbc="F F F"
Li       0.00000000       0.00000000       0.00000000       0.00000000       0.00000000       0.22356565
Li       0.00000000       0.00000000       4.88303030       0.00000000       0.00000000      -0.22356565
2
Properties=species:S:1:pos:R:3:forces:R:3 energy=-0.730886947417903 pbc="F F F"
Li       0.00000000       0.00000000       0.00000000       0.00000000       0.00000000       0.20759067
Li       0.00000000       0.00000000       4.94181818       0.00000000       0.00000000      -0.20759067
2
Properties=species:S:1:pos:R:3:forces:R:3 energy=-0.719129202977919 pbc="F F F"
Li       0.00000000       0.00000000       0.00000000       0.00000000       0.00000000       0.19261402
Li       0.00000000       0.00000000       5.00060606       0.00000000       0.00000000      -0.19261402
2
Properties=species:S:1:pos:R:3:forces:R:3 energy=-0.7082099227867749 pbc="F F F"
Li       0.00000000       0.00000000       0.00000000       0.00000000       0.00000000       0.17915297
Li       0.00000000       0.00000000       5.05939394       0.00000000       0.00000000      -0.17915297
2
Properties=species:S:1:pos:R:3:forces:R:3 energy=-0.6980294219355183 pbc="F F F"
Li       0.00000000       0.00000000       0.00000000       0.00000000       0.00000000       0.16748689
Li       0.00000000       0.00000000       5.11818182       0.00000000       0.00000000      -0.16748689
2
Properties=species:S:1:pos:R:3:forces:R:3 energy=-0.6884889598458975 pbc="F F F"
Li       0.00000000       0.00000000       0.00000000       0.00000000       0.00000000       0.15726574
Li       0.00000000       0.00000000       5.17696970       0.00000000       0.00000000      -0.15726574
2
Properties=species:S:1:pos:R:3:forces:R:3 energy=-0.679534852627244 pbc="F F F"
Li       0.00000000       0.00000000       0.00000000       0.00000000       0.00000000       0.14726277
Li       0.00000000       0.00000000       5.23575758       0.00000000       0.00000000      -0.14726277
2
Properties=species:S:1:pos:R:3:forces:R:3 energy=-0.6712052042859293 pbc="F F F"
Li       0.00000000       0.00000000       0.00000000       0.00000000       0.00000000       0.13576207
Li       0.00000000       0.00000000       5.29454545       0.00000000       0.00000000      -0.13576207
2
Properties=species:S:1:pos:R:3:forces:R:3 energy=-0.663609844470735 pbc="F F F"
Li       0.00000000       0.00000000       0.00000000       0.00000000       0.00000000       0.12250107
Li       0.00000000       0.00000000       5.35333333       0.00000000       0.00000000      -0.12250107
2
Properties=species:S:1:pos:R:3:forces:R:3 energy=-0.6567639275597736 pbc="F F F"
Li       0.00000000       0.00000000       0.00000000       0.00000000       0.00000000       0.11119992
Li       0.00000000       0.00000000       5.41212121       0.00000000       0.00000000      -0.11119992
2
Properties=species:S:1:pos:R:3:forces:R:3 energy=-0.6504159635089044 pbc="F F F"
Li       0.00000000       0.00000000       0.00000000       0.00000000       0.00000000       0.10557501
Li       0.00000000       0.00000000       5.47090909       0.00000000       0.00000000      -0.10557501
2
Properties=species:S:1:pos:R:3:forces:R:3 energy=-0.6443440846144874 pbc="F F F"
Li       0.00000000       0.00000000       0.00000000       0.00000000       0.00000000       0.10027513
Li       0.00000000       0.00000000       5.52969697       0.00000000       0.00000000      -0.10027513
2
Properties=species:S:1:pos:R:3:forces:R:3 energy=-0.638736295220628 pbc="F F F"
Li       0.00000000       0.00000000       0.00000000       0.00000000       0.00000000       0.08981799
Li       0.00000000       0.00000000       5.58848485       0.00000000       0.00000000      -0.08981799
2
Properties=species:S:1:pos:R:3:forces:R:3 energy=-0.6337857896113012 pbc="F F F"
Li       0.00000000       0.00000000       0.00000000       0.00000000       0.00000000       0.07934666
Li       0.00000000       0.00000000       5.64727273       0.00000000       0.00000000      -0.07934666
2
Properties=species:S:1:pos:R:3:forces:R:3 energy=-0.6292563327796301 pbc="F F F"
Li       0.00000000       0.00000000       0.00000000       0.00000000       0.00000000       0.07622820
Li       0.00000000       0.00000000       5.70606061       0.00000000       0.00000000      -0.07622820
2
Properties=species:S:1:pos:R:3:forces:R:3 energy=-0.6247338496336133 pbc="F F F"
Li       0.00000000       0.00000000       0.00000000       0.00000000       0.00000000       0.07689612
Li       0.00000000       0.00000000       5.76484848       0.00000000       0.00000000      -0.07689612
2
Properties=species:S:1:pos:R:3:forces:R:3 energy=-0.6204239547341281 pbc="F F F"
Li       0.00000000       0.00000000       0.00000000       0.00000000       0.00000000       0.06746662
Li       0.00000000       0.00000000       5.82363636       0.00000000       0.00000000      -0.06746662
2
Properties=species:S:1:pos:R:3:forces:R:3 energy=-0.6170421958012572 pbc="F F F"
Li       0.00000000       0.00000000       0.00000000       0.00000000       0.00000000       0.04678798
Li       0.00000000       0.00000000       5.88242424       0.00000000       0.00000000      -0.04678798
2
Properties=species:S:1:pos:R:3:forces:R:3 energy=-0.6148985823914017 pbc="F F F"
Li       0.00000000       0.00000000       0.00000000       0.00000000       0.00000000       0.02720085
Li       0.00000000       0.00000000       5.94121212       0.00000000       0.00000000      -0.02720085
2
Properties=species:S:1:pos:R:3:forces:R:3 energy=-0.613613650960351 pbc="F F F"
Li       0.00000000       0.00000000       0.00000000       0.00000000       0.00000000       0.01887134
Li       0.00000000       0.00000000       6.00000000       0.00000000       0.00000000      -0.01887134
