2
Properties=species:S:1:pos:R:3:forces:R:3 energy=13985.770850533194 pbc="F F F"
Lu       0.00000000       0.00000000       0.00000000       0.00000000       0.00000000 -244138.68750000
Lu       0.00000000       0.00000000       0.18000000       0.00000000       0.00000000  244138.68750000
2
Properties=species:S:1:pos:R:3:forces:R:3 energy=5442.481299751943 pbc="F F F"
Lu       0.00000000       0.00000000       0.00000000       0.00000000       0.00000000  -80998.07031250
Lu       0.00000000       0.00000000       0.23878788       0.00000000       0.00000000   80998.07031250
2
Properties=species:S:1:pos:R:3:forces:R:3 energy=2387.7403329550684 pbc="F F F"
Lu       0.00000000       0.00000000       0.00000000       0.00000000       0.00000000  -31621.49023438
Lu       0.00000000       0.00000000       0.29757576       0.00000000       0.00000000   31621.49023438
2
Properties=species:S:1:pos:R:3:forces:R:3 energy=1138.381934523904 pbc="F F F"
Lu       0.00000000       0.00000000       0.00000000       0.00000000       0.00000000  -13658.83203125
Lu       0.00000000       0.00000000       0.35636364       0.00000000       0.00000000   13658.83203125
2
Properties=species:S:1:pos:R:3:forces:R:3 energy=580.6084359887477 pbc="F F F"
Lu       0.00000000       0.00000000       0.00000000       0.00000000       0.00000000   -6343.69628906
Lu       0.00000000       0.00000000       0.41515152       0.00000000       0.00000000    6343.69628906
2
Properties=species:S:1:pos:R:3:forces:R:3 energy=314.5616830717315 pbc="F F F"
Lu       0.00000000       0.00000000       0.00000000       0.00000000       0.00000000   -3124.96118164
Lu       0.00000000       0.00000000       0.47393939       0.00000000       0.00000000    3124.96118164
2
Properties=species:S:1:pos:R:3:forces:R:3 energy=180.4204935092075 pbc="F F F"
Lu       0.00000000       0.00000000       0.00000000       0.00000000       0.00000000   -1620.43371582
Lu       0.00000000       0.00000000       0.53272727       0.00000000       0.00000000    1620.43371582
2
Properties=species:S:1:pos:R:3:forces:R:3 energy=109.39000648033884 pbc="F F F"
Lu       0.00000000       0.00000000       0.00000000       0.00000000       0.00000000    -879.74578857
Lu       0.00000000       0.00000000       0.59151515       0.00000000       0.00000000     879.74578857
2
Properties=species:S:1:pos:R:3:forces:R:3 energy=70.08502148463727 pbc="F F F"
Lu       0.00000000       0.00000000       0.00000000       0.00000000       0.00000000    -497.88861084
Lu       0.00000000       0.00000000       0.65030303       0.00000000       0.00000000     497.88861084
2
Properties=species:S:1:pos:R:3:forces:R:3 energy=47.44055133948561 pbc="F F F"
Lu       0.00000000       0.00000000       0.00000000       0.00000000       0.00000000    -292.99389648
Lu       0.00000000       0.00000000       0.70909091       0.00000000       0.00000000     292.99389648
2
Properties=species:S:1:pos:R:3:forces:R:3 energy=33.869743042882675 pbc="F F F"
Lu       0.00000000       0.00000000       0.00000000       0.00000000       0.00000000    -179.58227539
Lu       0.00000000       0.00000000       0.76787879       0.00000000       0.00000000     179.58227539
2
Properties=species:S:1:pos:R:3:forces:R:3 energy=25.3676031751147 pbc="F F F"
Lu       0.00000000       0.00000000       0.00000000       0.00000000       0.00000000    -115.71677399
Lu       0.00000000       0.00000000       0.82666667       0.00000000       0.00000000     115.71677399
2
Properties=species:S:1:pos:R:3:forces:R:3 energy=19.72110188106713 pbc="F F F"
Lu       0.00000000       0.00000000       0.00000000       0.00000000       0.00000000     -79.87432098
Lu       0.00000000       0.00000000       0.88545455       0.00000000       0.00000000      79.87432098
2
Properties=species:S:1:pos:R:3:forces:R:3 energy=15.660566798619364 pbc="F F F"
Lu       0.00000000       0.00000000       0.00000000       0.00000000       0.00000000     -60.28305054
Lu       0.00000000       0.00000000       0.94424242       0.00000000       0.00000000      60.28305054
2
Properties=species:S:1:pos:R:3:forces:R:3 energy=12.459959973988 pbc="F F F"
Lu       0.00000000       0.00000000       0.00000000       0.00000000       0.00000000     -49.58893967
Lu       0.00000000       0.00000000       1.00303030       0.00000000       0.00000000      49.58893967
2
Properties=species:S:1:pos:R:3:forces:R:3 energy=9.76384988848524 pbc="F F F"
Lu       0.00000000       0.00000000       0.00000000       0.00000000       0.00000000     -42.32886505
Lu       0.00000000       0.00000000       1.06181818       0.00000000       0.00000000      42.32886505
2
Properties=species:S:1:pos:R:3:forces:R:3 energy=7.4888864175522984 pbc="F F F"
Lu       0.00000000       0.00000000       0.00000000       0.00000000       0.00000000     -34.90435028
Lu       0.00000000       0.00000000       1.12060606       0.00000000       0.00000000      34.90435028
2
Properties=species:S:1:pos:R:3:forces:R:3 energy=5.671590550814171 pbc="F F F"
Lu       0.00000000       0.00000000       0.00000000       0.00000000       0.00000000     -26.90521431
Lu       0.00000000       0.00000000       1.17939394       0.00000000       0.00000000      26.90521431
2
Properties=species:S:1:pos:R:3:forces:R:3 energy=4.325141189677008 pbc="F F F"
Lu       0.00000000       0.00000000       0.00000000       0.00000000       0.00000000     -18.90825844
Lu       0.00000000       0.00000000       1.23818182       0.00000000       0.00000000      18.90825844
2
Properties=species:S:1:pos:R:3:forces:R:3 energy=3.442374170285118 pbc="F F F"
Lu       0.00000000       0.00000000       0.00000000       0.00000000       0.00000000     -11.25811863
Lu       0.00000000       0.00000000       1.29696970       0.00000000       0.00000000      11.25811863
2
Properties=species:S:1:pos:R:3:forces:R:3 energy=2.972815163377536 pbc="F F F"
Lu       0.00000000       0.00000000       0.00000000       0.00000000       0.00000000      -5.06348467
Lu       0.00000000       0.00000000       1.35575758       0.00000000       0.00000000       5.06348467
2
Properties=species:S:1:pos:R:3:forces:R:3 energy=2.7992548484865827 pbc="F F F"
Lu       0.00000000       0.00000000       0.00000000       0.00000000       0.00000000      -1.26229441
Lu       0.00000000       0.00000000       1.41454545       0.00000000       0.00000000       1.26229441
2
Properties=species:S:1:pos:R:3:forces:R:3 energy=2.7797820714196018 pbc="F F F"
Lu       0.00000000       0.00000000       0.00000000       0.00000000       0.00000000       0.27898049
Lu       0.00000000       0.00000000       1.47333333       0.00000000       0.00000000      -0.27898049
2
Properties=species:S:1:pos:R:3:forces:R:3 energy=2.8015510675505633 pbc="F F F"
Lu       0.00000000       0.00000000       0.00000000       0.00000000       0.00000000       0.26452801
Lu       0.00000000       0.00000000       1.53212121       0.00000000       0.00000000      -0.26452801
2
Properties=species:S:1:pos:R:3:forces:R:3 energy=2.796662774463885 pbc="F F F"
Lu       0.00000000       0.00000000       0.00000000       0.00000000       0.00000000      -0.47066674
Lu       0.00000000       0.00000000       1.59090909       0.00000000       0.00000000       0.47066674
2
Properties=species:S:1:pos:R:3:forces:R:3 energy=2.7472927070755273 pbc="F F F"
Lu       0.00000000       0.00000000       0.00000000       0.00000000       0.00000000      -1.19097507
Lu       0.00000000       0.00000000       1.64969697       0.00000000       0.00000000       1.19097507
2
Properties=species:S:1:pos:R:3:forces:R:3 energy=2.6554681028856293 pbc="F F F"
Lu       0.00000000       0.00000000       0.00000000       0.00000000       0.00000000      -1.96892905
Lu       0.00000000       0.00000000       1.70848485       0.00000000       0.00000000       1.96892905
2
Properties=species:S:1:pos:R:3:forces:R:3 energy=2.510588391030437 pbc="F F F"
Lu       0.00000000       0.00000000       0.00000000       0.00000000       0.00000000      -3.00223088
Lu       0.00000000       0.00000000       1.76727273       0.00000000       0.00000000       3.00223088
2
Properties=species:S:1:pos:R:3:forces:R:3 energy=2.29874639237957 pbc="F F F"
Lu       0.00000000       0.00000000       0.00000000       0.00000000       0.00000000      -4.22297239
Lu       0.00000000       0.00000000       1.82606061       0.00000000       0.00000000       4.22297239
2
Properties=species:S:1:pos:R:3:forces:R:3 energy=2.0140172261804787 pbc="F F F"
Lu       0.00000000       0.00000000       0.00000000       0.00000000       0.00000000      -5.44366217
Lu       0.00000000       0.00000000       1.88484848       0.00000000       0.00000000       5.44366217
2
Properties=species:S:1:pos:R:3:forces:R:3 energy=1.6636710558580534 pbc="F F F"
Lu       0.00000000       0.00000000       0.00000000       0.00000000       0.00000000      -6.41242313
Lu       0.00000000       0.00000000       1.94363636       0.00000000       0.00000000       6.41242313
2
Properties=species:S:1:pos:R:3:forces:R:3 energy=1.2689952323031002 pbc="F F F"
Lu       0.00000000       0.00000000       0.00000000       0.00000000       0.00000000      -6.93382168
Lu       0.00000000       0.00000000       2.00242424       0.00000000       0.00000000       6.93382168
2
Properties=species:S:1:pos:R:3:forces:R:3 energy=0.8570227557441937 pbc="F F F"
Lu       0.00000000       0.00000000       0.00000000       0.00000000       0.00000000      -7.02332306
Lu       0.00000000       0.00000000       2.06121212       0.00000000       0.00000000       7.02332306
2
Properties=species:S:1:pos:R:3:forces:R:3 energy=0.4478794714468445 pbc="F F F"
Lu       0.00000000       0.00000000       0.00000000       0.00000000       0.00000000      -6.87360954
Lu       0.00000000       0.00000000       2.12000000       0.00000000       0.00000000       6.87360954
2
Properties=species:S:1:pos:R:3:forces:R:3 energy=0.05026988659885724 pbc="F F F"
Lu       0.00000000       0.00000000       0.00000000       0.00000000       0.00000000      -6.64594030
Lu       0.00000000       0.00000000       2.17878788       0.00000000       0.00000000       6.64594030
2
Properties=species:S:1:pos:R:3:forces:R:3 energy=-0.33251176720435954 pbc="F F F"
Lu       0.00000000       0.00000000       0.00000000       0.00000000       0.00000000      -6.36461353
Lu       0.00000000       0.00000000       2.23757576       0.00000000       0.00000000       6.36461353
2
Properties=species:S:1:pos:R:3:forces:R:3 energy=-0.6962501777042408 pbc="F F F"
Lu       0.00000000       0.00000000       0.00000000       0.00000000       0.00000000      -5.99220276
Lu       0.00000000       0.00000000       2.29636364       0.00000000       0.00000000       5.99220276
2
Properties=species:S:1:pos:R:3:forces:R:3 energy=-1.0348958151567502 pbc="F F F"
Lu       0.00000000       0.00000000       0.00000000       0.00000000       0.00000000      -5.51113892
Lu       0.00000000       0.00000000       2.35515152       0.00000000       0.00000000       5.51113892
2
Properties=species:S:1:pos:R:3:forces:R:3 energy=-1.342366865691162 pbc="F F F"
Lu       0.00000000       0.00000000       0.00000000       0.00000000       0.00000000      -4.93583059
Lu       0.00000000       0.00000000       2.41393939       0.00000000       0.00000000       4.93583059
2
Properties=species:S:1:pos:R:3:forces:R:3 energy=-1.6140420791556636 pbc="F F F"
Lu       0.00000000       0.00000000       0.00000000       0.00000000       0.00000000      -4.30012417
Lu       0.00000000       0.00000000       2.47272727       0.00000000       0.00000000       4.30012417
2
Properties=species:S:1:pos:R:3:forces:R:3 energy=-1.847602901552607 pbc="F F F"
Lu       0.00000000       0.00000000       0.00000000       0.00000000       0.00000000      -3.64617825
Lu       0.00000000       0.00000000       2.53151515       0.00000000       0.00000000       3.64617825
2
Properties=species:S:1:pos:R:3:forces:R:3 energy=-2.0431515682628967 pbc="F F F"
Lu       0.00000000       0.00000000       0.00000000       0.00000000       0.00000000      -3.01262426
Lu       0.00000000       0.00000000       2.59030303       0.00000000       0.00000000       3.01262426
2
Properties=species:S:1:pos:R:3:forces:R:3 energy=-2.2027103541698363 pbc="F F F"
Lu       0.00000000       0.00000000       0.00000000       0.00000000       0.00000000      -2.42433763
Lu       0.00000000       0.00000000       2.64909091       0.00000000       0.00000000       2.42433763
2
Properties=species:S:1:pos:R:3:forces:R:3 energy=-2.329252792609123 pbc="F F F"
Lu       0.00000000       0.00000000       0.00000000       0.00000000       0.00000000      -1.88950610
Lu       0.00000000       0.00000000       2.70787879       0.00000000       0.00000000       1.88950610
2
Properties=species:S:1:pos:R:3:forces:R:3 energy=-2.4258372115672393 pbc="F F F"
Lu       0.00000000       0.00000000       0.00000000       0.00000000       0.00000000      -1.40374804
Lu       0.00000000       0.00000000       2.76666667       0.00000000       0.00000000       1.40374804
2
Properties=species:S:1:pos:R:3:forces:R:3 energy=-2.4950711263434986 pbc="F F F"
Lu       0.00000000       0.00000000       0.00000000       0.00000000       0.00000000      -0.95744097
Lu       0.00000000       0.00000000       2.82545455       0.00000000       0.00000000       0.95744097
2
Properties=species:S:1:pos:R:3:forces:R:3 energy=-2.539023268262053 pbc="F F F"
Lu       0.00000000       0.00000000       0.00000000       0.00000000       0.00000000      -0.54270995
Lu       0.00000000       0.00000000       2.88424242       0.00000000       0.00000000       0.54270995
2
Properties=species:S:1:pos:R:3:forces:R:3 energy=-2.559462244005473 pbc="F F F"
Lu       0.00000000       0.00000000       0.00000000       0.00000000       0.00000000      -0.15788724
Lu       0.00000000       0.00000000       2.94303030       0.00000000       0.00000000       0.15788724
2
Properties=species:S:1:pos:R:3:forces:R:3 energy=-2.5582721222047997 pbc="F F F"
Lu       0.00000000       0.00000000       0.00000000       0.00000000       0.00000000       0.19178952
Lu       0.00000000       0.00000000       3.00181818       0.00000000       0.00000000      -0.19178952
2
Properties=species:S:1:pos:R:3:forces:R:3 energy=-2.5377791365849984 pbc="F F F"
Lu       0.00000000       0.00000000       0.00000000       0.00000000       0.00000000       0.49726453
Lu       0.00000000       0.00000000       3.06060606       0.00000000       0.00000000      -0.49726453
2
Properties=species:S:1:pos:R:3:forces:R:3 energy=-2.500830716556238 pbc="F F F"
Lu       0.00000000       0.00000000       0.00000000       0.00000000       0.00000000       0.75071490
Lu       0.00000000       0.00000000       3.11939394       0.00000000       0.00000000      -0.75071490
2
Properties=species:S:1:pos:R:3:forces:R:3 energy=-2.4505817351182277 pbc="F F F"
Lu       0.00000000       0.00000000       0.00000000       0.00000000       0.00000000       0.94985455
Lu       0.00000000       0.00000000       3.17818182       0.00000000       0.00000000      -0.94985455
2
Properties=species:S:1:pos:R:3:forces:R:3 energy=-2.3901312776590715 pbc="F F F"
Lu       0.00000000       0.00000000       0.00000000       0.00000000       0.00000000       1.09916532
Lu       0.00000000       0.00000000       3.23696970       0.00000000       0.00000000      -1.09916532
2
Properties=species:S:1:pos:R:3:forces:R:3 energy=-2.3221402115466754 pbc="F F F"
Lu       0.00000000       0.00000000       0.00000000       0.00000000       0.00000000       1.20806968
Lu       0.00000000       0.00000000       3.29575758       0.00000000       0.00000000      -1.20806968
2
Properties=species:S:1:pos:R:3:forces:R:3 energy=-2.248666245493589 pbc="F F F"
Lu       0.00000000       0.00000000       0.00000000       0.00000000       0.00000000       1.28748441
Lu       0.00000000       0.00000000       3.35454545       0.00000000       0.00000000      -1.28748441
2
Properties=species:S:1:pos:R:3:forces:R:3 energy=-2.171158740696995 pbc="F F F"
Lu       0.00000000       0.00000000       0.00000000       0.00000000       0.00000000       1.34656668
Lu       0.00000000       0.00000000       3.41333333       0.00000000       0.00000000      -1.34656668
2
Properties=species:S:1:pos:R:3:forces:R:3 energy=-2.090634544044913 pbc="F F F"
Lu       0.00000000       0.00000000       0.00000000       0.00000000       0.00000000       1.39061630
Lu       0.00000000       0.00000000       3.47212121       0.00000000       0.00000000      -1.39061630
2
Properties=species:S:1:pos:R:3:forces:R:3 energy=-2.0079292766267636 pbc="F F F"
Lu       0.00000000       0.00000000       0.00000000       0.00000000       0.00000000       1.42062271
Lu       0.00000000       0.00000000       3.53090909       0.00000000       0.00000000      -1.42062271
2
Properties=species:S:1:pos:R:3:forces:R:3 energy=-1.9239220277410964 pbc="F F F"
Lu       0.00000000       0.00000000       0.00000000       0.00000000       0.00000000       1.43436933
Lu       0.00000000       0.00000000       3.58969697       0.00000000       0.00000000      -1.43436933
2
Properties=species:S:1:pos:R:3:forces:R:3 energy=-1.83966438252844 pbc="F F F"
Lu       0.00000000       0.00000000       0.00000000       0.00000000       0.00000000       1.42863619
Lu       0.00000000       0.00000000       3.64848485       0.00000000       0.00000000      -1.42863619
2
Properties=species:S:1:pos:R:3:forces:R:3 energy=-1.7563734824899322 pbc="F F F"
Lu       0.00000000       0.00000000       0.00000000       0.00000000       0.00000000       1.40136671
Lu       0.00000000       0.00000000       3.70727273       0.00000000       0.00000000      -1.40136671
2
Properties=species:S:1:pos:R:3:forces:R:3 energy=-1.675313650662796 pbc="F F F"
Lu       0.00000000       0.00000000       0.00000000       0.00000000       0.00000000       1.35291350
Lu       0.00000000       0.00000000       3.76606061       0.00000000       0.00000000      -1.35291350
2
Properties=species:S:1:pos:R:3:forces:R:3 energy=-1.5976673208059289 pbc="F F F"
Lu       0.00000000       0.00000000       0.00000000       0.00000000       0.00000000       1.28595471
Lu       0.00000000       0.00000000       3.82484848       0.00000000       0.00000000      -1.28595471
2
Properties=species:S:1:pos:R:3:forces:R:3 energy=-1.5243990501107954 pbc="F F F"
Lu       0.00000000       0.00000000       0.00000000       0.00000000       0.00000000       1.20465636
Lu       0.00000000       0.00000000       3.88363636       0.00000000       0.00000000      -1.20465636
2
Properties=species:S:1:pos:R:3:forces:R:3 energy=-1.4562118707624712 pbc="F F F"
Lu       0.00000000       0.00000000       0.00000000       0.00000000       0.00000000       1.11399162
Lu       0.00000000       0.00000000       3.94242424       0.00000000       0.00000000      -1.11399162
2
Properties=species:S:1:pos:R:3:forces:R:3 energy=-1.3934968770814504 pbc="F F F"
Lu       0.00000000       0.00000000       0.00000000       0.00000000       0.00000000       1.01948297
Lu       0.00000000       0.00000000       4.00121212       0.00000000       0.00000000      -1.01948297
2
Properties=species:S:1:pos:R:3:forces:R:3 energy=-1.336304440232018 pbc="F F F"
Lu       0.00000000       0.00000000       0.00000000       0.00000000       0.00000000       0.92708462
Lu       0.00000000       0.00000000       4.06000000       0.00000000       0.00000000      -0.92708462
2
Properties=species:S:1:pos:R:3:forces:R:3 energy=-1.2843357697052697 pbc="F F F"
Lu       0.00000000       0.00000000       0.00000000       0.00000000       0.00000000       0.84272349
Lu       0.00000000       0.00000000       4.11878788       0.00000000       0.00000000      -0.84272349
2
Properties=species:S:1:pos:R:3:forces:R:3 energy=-1.2369647412903864 pbc="F F F"
Lu       0.00000000       0.00000000       0.00000000       0.00000000       0.00000000       0.77134109
Lu       0.00000000       0.00000000       4.17757576       0.00000000       0.00000000      -0.77134109
2
Properties=species:S:1:pos:R:3:forces:R:3 energy=-1.1933288612661597 pbc="F F F"
Lu       0.00000000       0.00000000       0.00000000       0.00000000       0.00000000       0.71598023
Lu       0.00000000       0.00000000       4.23636364       0.00000000       0.00000000      -0.71598023
2
Properties=species:S:1:pos:R:3:forces:R:3 energy=-1.1524538959614177 pbc="F F F"
Lu       0.00000000       0.00000000       0.00000000       0.00000000       0.00000000       0.67728561
Lu       0.00000000       0.00000000       4.29515152       0.00000000       0.00000000      -0.67728561
2
Properties=species:S:1:pos:R:3:forces:R:3 energy=-1.113400921333437 pbc="F F F"
Lu       0.00000000       0.00000000       0.00000000       0.00000000       0.00000000       0.65364474
Lu       0.00000000       0.00000000       4.35393939       0.00000000       0.00000000      -0.65364474
2
Properties=species:S:1:pos:R:3:forces:R:3 energy=-1.0753717028119534 pbc="F F F"
Lu       0.00000000       0.00000000       0.00000000       0.00000000       0.00000000       0.64174742
Lu       0.00000000       0.00000000       4.41272727       0.00000000       0.00000000      -0.64174742
2
Properties=species:S:1:pos:R:3:forces:R:3 energy=-1.0377997786999744 pbc="F F F"
Lu       0.00000000       0.00000000       0.00000000       0.00000000       0.00000000       0.63733327
Lu       0.00000000       0.00000000       4.47151515       0.00000000       0.00000000      -0.63733327
2
Properties=species:S:1:pos:R:3:forces:R:3 energy=-1.0003790957458496 pbc="F F F"
Lu       0.00000000       0.00000000       0.00000000       0.00000000       0.00000000       0.63583285
Lu       0.00000000       0.00000000       4.53030303       0.00000000       0.00000000      -0.63583285
2
Properties=species:S:1:pos:R:3:forces:R:3 energy=-0.963071334178933 pbc="F F F"
Lu       0.00000000       0.00000000       0.00000000       0.00000000       0.00000000       0.63281524
Lu       0.00000000       0.00000000       4.58909091       0.00000000       0.00000000      -0.63281524
2
Properties=species:S:1:pos:R:3:forces:R:3 energy=-0.9260850866816234 pbc="F F F"
Lu       0.00000000       0.00000000       0.00000000       0.00000000       0.00000000       0.62426299
Lu       0.00000000       0.00000000       4.64787879       0.00000000       0.00000000      -0.62426299
2
Properties=species:S:1:pos:R:3:forces:R:3 energy=-0.8898482905332096 pbc="F F F"
Lu       0.00000000       0.00000000       0.00000000       0.00000000       0.00000000       0.60678053
Lu       0.00000000       0.00000000       4.70666667       0.00000000       0.00000000      -0.60678053
2
Properties=species:S:1:pos:R:3:forces:R:3 energy=-0.8549649002008103 pbc="F F F"
Lu       0.00000000       0.00000000       0.00000000       0.00000000       0.00000000       0.57797766
Lu       0.00000000       0.00000000       4.76545455       0.00000000       0.00000000      -0.57797766
2
Properties=species:S:1:pos:R:3:forces:R:3 energy=-0.8221305251762377 pbc="F F F"
Lu       0.00000000       0.00000000       0.00000000       0.00000000       0.00000000       0.53706527
Lu       0.00000000       0.00000000       4.82424242       0.00000000       0.00000000      -0.53706527
2
Properties=species:S:1:pos:R:3:forces:R:3 energy=-0.792029937913408 pbc="F F F"
Lu       0.00000000       0.00000000       0.00000000       0.00000000       0.00000000       0.48557302
Lu       0.00000000       0.00000000       4.88303030       0.00000000       0.00000000      -0.48557302
2
Properties=species:S:1:pos:R:3:forces:R:3 energy=-0.7651643257285409 pbc="F F F"
Lu       0.00000000       0.00000000       0.00000000       0.00000000       0.00000000       0.42780030
Lu       0.00000000       0.00000000       4.94181818       0.00000000       0.00000000      -0.42780030
2
Properties=species:S:1:pos:R:3:forces:R:3 energy=-0.7417197027514282 pbc="F F F"
Lu       0.00000000       0.00000000       0.00000000       0.00000000       0.00000000       0.37048894
Lu       0.00000000       0.00000000       5.00060606       0.00000000       0.00000000      -0.37048894
2
Properties=species:S:1:pos:R:3:forces:R:3 energy=-0.7214437819844636 pbc="F F F"
Lu       0.00000000       0.00000000       0.00000000       0.00000000       0.00000000       0.32122973
Lu       0.00000000       0.00000000       5.05939394       0.00000000       0.00000000      -0.32122973
2
Properties=species:S:1:pos:R:3:forces:R:3 energy=-0.7036774479709773 pbc="F F F"
Lu       0.00000000       0.00000000       0.00000000       0.00000000       0.00000000       0.28574857
Lu       0.00000000       0.00000000       5.11818182       0.00000000       0.00000000      -0.28574857
2
Properties=species:S:1:pos:R:3:forces:R:3 energy=-0.6875552072156159 pbc="F F F"
Lu       0.00000000       0.00000000       0.00000000       0.00000000       0.00000000       0.26495954
Lu       0.00000000       0.00000000       5.17696970       0.00000000       0.00000000      -0.26495954
2
Properties=species:S:1:pos:R:3:forces:R:3 energy=-0.6723420693008385 pbc="F F F"
Lu       0.00000000       0.00000000       0.00000000       0.00000000       0.00000000       0.25341046
Lu       0.00000000       0.00000000       5.23575758       0.00000000       0.00000000      -0.25341046
2
Properties=species:S:1:pos:R:3:forces:R:3 energy=-0.6577662625978995 pbc="F F F"
Lu       0.00000000       0.00000000       0.00000000       0.00000000       0.00000000       0.24177188
Lu       0.00000000       0.00000000       5.29454545       0.00000000       0.00000000      -0.24177188
2
Properties=species:S:1:pos:R:3:forces:R:3 energy=-0.6440029489435597 pbc="F F F"
Lu       0.00000000       0.00000000       0.00000000       0.00000000       0.00000000       0.22629955
Lu       0.00000000       0.00000000       5.35333333       0.00000000       0.00000000      -0.22629955
2
Properties=species:S:1:pos:R:3:forces:R:3 energy=-0.6309910873027196 pbc="F F F"
Lu       0.00000000       0.00000000       0.00000000       0.00000000       0.00000000       0.21941522
Lu       0.00000000       0.00000000       5.41212121       0.00000000       0.00000000      -0.21941522
2
Properties=species:S:1:pos:R:3:forces:R:3 energy=-0.617817877594891 pbc="F F F"
Lu       0.00000000       0.00000000       0.00000000       0.00000000       0.00000000       0.23053472
Lu       0.00000000       0.00000000       5.47090909       0.00000000       0.00000000      -0.23053472
2
Properties=species:S:1:pos:R:3:forces:R:3 energy=-0.604058010538035 pbc="F F F"
Lu       0.00000000       0.00000000       0.00000000       0.00000000       0.00000000       0.23330061
Lu       0.00000000       0.00000000       5.52969697       0.00000000       0.00000000      -0.23330061
2
Properties=species:S:1:pos:R:3:forces:R:3 energy=-0.5909249523692008 pbc="F F F"
Lu       0.00000000       0.00000000       0.00000000       0.00000000       0.00000000       0.21036653
Lu       0.00000000       0.00000000       5.58848485       0.00000000       0.00000000      -0.21036653
2
Properties=species:S:1:pos:R:3:forces:R:3 energy=-0.5793571062250547 pbc="F F F"
Lu       0.00000000       0.00000000       0.00000000       0.00000000       0.00000000       0.18593825
Lu       0.00000000       0.00000000       5.64727273       0.00000000       0.00000000      -0.18593825
2
Properties=species:S:1:pos:R:3:forces:R:3 energy=-0.5685165830480358 pbc="F F F"
Lu       0.00000000       0.00000000       0.00000000       0.00000000       0.00000000       0.18761513
Lu       0.00000000       0.00000000       5.70606061       0.00000000       0.00000000      -0.18761513
2
Properties=species:S:1:pos:R:3:forces:R:3 energy=-0.5571844524538374 pbc="F F F"
Lu       0.00000000       0.00000000       0.00000000       0.00000000       0.00000000       0.19274564
Lu       0.00000000       0.00000000       5.76484848       0.00000000       0.00000000      -0.19274564
2
Properties=species:S:1:pos:R:3:forces:R:3 energy=-0.5467862408221132 pbc="F F F"
Lu       0.00000000       0.00000000       0.00000000       0.00000000       0.00000000       0.15348995
Lu       0.00000000       0.00000000       5.82363636       0.00000000       0.00000000      -0.15348995
2
Properties=species:S:1:pos:R:3:forces:R:3 energy=-0.5396634607863521 pbc="F F F"
Lu       0.00000000       0.00000000       0.00000000       0.00000000       0.00000000       0.08926496
Lu       0.00000000       0.00000000       5.88242424       0.00000000       0.00000000      -0.08926496
2
Properties=species:S:1:pos:R:3:forces:R:3 energy=-0.53595716195897 pbc="F F F"
Lu       0.00000000       0.00000000       0.00000000       0.00000000       0.00000000       0.04091068
Lu       0.00000000       0.00000000       5.94121212       0.00000000       0.00000000      -0.04091068
2
Properties=species:S:1:pos:R:3:forces:R:3 energy=-0.5342417883146307 pbc="F F F"
Lu       0.00000000       0.00000000       0.00000000       0.00000000       0.00000000       0.02315903
Lu       0.00000000       0.00000000       6.00000000       0.00000000       0.00000000      -0.02315903
