2
Properties=species:S:1:pos:R:3:forces:R:3 energy=1118.7507420048837 pbc="F F F"
Mg       0.00000000       0.00000000       0.00000000       0.00000000       0.00000000  -15171.14355469
Mg       0.00000000       0.00000000       0.18000000       0.00000000       0.00000000   15171.14355469
2
Properties=species:S:1:pos:R:3:forces:R:3 energy=549.5954075322276 pbc="F F F"
Mg       0.00000000       0.00000000       0.00000000       0.00000000       0.00000000   -5920.94189453
Mg       0.00000000       0.00000000       0.23878788       0.00000000       0.00000000    5920.94189453
2
Properties=species:S:1:pos:R:3:forces:R:3 energy=311.24509625293064 pbc="F F F"
Mg       0.00000000       0.00000000       0.00000000       0.00000000       0.00000000   -2691.65942383
Mg       0.00000000       0.00000000       0.29757576       0.00000000       0.00000000    2691.65942383
2
Properties=species:S:1:pos:R:3:forces:R:3 energy=197.44031720653192 pbc="F F F"
Mg       0.00000000       0.00000000       0.00000000       0.00000000       0.00000000   -1359.04797363
Mg       0.00000000       0.00000000       0.35636364       0.00000000       0.00000000    1359.04797363
2
Properties=species:S:1:pos:R:3:forces:R:3 energy=137.8723240551407 pbc="F F F"
Mg       0.00000000       0.00000000       0.00000000       0.00000000       0.00000000    -740.93670654
Mg       0.00000000       0.00000000       0.41515152       0.00000000       0.00000000     740.93670654
2
Properties=species:S:1:pos:R:3:forces:R:3 energy=104.44306382024139 pbc="F F F"
Mg       0.00000000       0.00000000       0.00000000       0.00000000       0.00000000    -430.05657959
Mg       0.00000000       0.00000000       0.47393939       0.00000000       0.00000000     430.05657959
2
Properties=species:S:1:pos:R:3:forces:R:3 energy=84.488710538407 pbc="F F F"
Mg       0.00000000       0.00000000       0.00000000       0.00000000       0.00000000    -265.73727417
Mg       0.00000000       0.00000000       0.53272727       0.00000000       0.00000000     265.73727417
2
Properties=species:S:1:pos:R:3:forces:R:3 energy=71.72860166668083 pbc="F F F"
Mg       0.00000000       0.00000000       0.00000000       0.00000000       0.00000000    -177.55947876
Mg       0.00000000       0.00000000       0.59151515       0.00000000       0.00000000     177.55947876
2
Properties=species:S:1:pos:R:3:forces:R:3 energy=62.78869091105749 pbc="F F F"
Mg       0.00000000       0.00000000       0.00000000       0.00000000       0.00000000    -131.89053345
Mg       0.00000000       0.00000000       0.65030303       0.00000000       0.00000000     131.89053345
2
Properties=species:S:1:pos:R:3:forces:R:3 energy=55.738493518815396 pbc="F F F"
Mg       0.00000000       0.00000000       0.00000000       0.00000000       0.00000000    -111.07255554
Mg       0.00000000       0.00000000       0.70909091       0.00000000       0.00000000     111.07255554
2
Properties=species:S:1:pos:R:3:forces:R:3 energy=49.46077243056831 pbc="F F F"
Mg       0.00000000       0.00000000       0.00000000       0.00000000       0.00000000    -103.99562073
Mg       0.00000000       0.00000000       0.76787879       0.00000000       0.00000000     103.99562073
2
Properties=species:S:1:pos:R:3:forces:R:3 energy=43.42813815162728 pbc="F F F"
Mg       0.00000000       0.00000000       0.00000000       0.00000000       0.00000000    -101.20079803
Mg       0.00000000       0.00000000       0.82666667       0.00000000       0.00000000     101.20079803
2
Properties=species:S:1:pos:R:3:forces:R:3 energy=37.59434517673321 pbc="F F F"
Mg       0.00000000       0.00000000       0.00000000       0.00000000       0.00000000     -97.34841156
Mg       0.00000000       0.00000000       0.88545455       0.00000000       0.00000000      97.34841156
2
Properties=species:S:1:pos:R:3:forces:R:3 energy=31.92364412114646 pbc="F F F"
Mg       0.00000000       0.00000000       0.00000000       0.00000000       0.00000000     -95.80081177
Mg       0.00000000       0.00000000       0.94424242       0.00000000       0.00000000      95.80081177
2
Properties=species:S:1:pos:R:3:forces:R:3 energy=26.403133773749342 pbc="F F F"
Mg       0.00000000       0.00000000       0.00000000       0.00000000       0.00000000     -90.76405334
Mg       0.00000000       0.00000000       1.00303030       0.00000000       0.00000000      90.76405334
2
Properties=species:S:1:pos:R:3:forces:R:3 energy=21.40355893477672 pbc="F F F"
Mg       0.00000000       0.00000000       0.00000000       0.00000000       0.00000000     -78.33019257
Mg       0.00000000       0.00000000       1.06181818       0.00000000       0.00000000      78.33019257
2
Properties=species:S:1:pos:R:3:forces:R:3 energy=17.25350438295505 pbc="F F F"
Mg       0.00000000       0.00000000       0.00000000       0.00000000       0.00000000     -62.68607330
Mg       0.00000000       0.00000000       1.12060606       0.00000000       0.00000000      62.68607330
2
Properties=species:S:1:pos:R:3:forces:R:3 energy=14.048760179702596 pbc="F F F"
Mg       0.00000000       0.00000000       0.00000000       0.00000000       0.00000000     -46.30960083
Mg       0.00000000       0.00000000       1.17939394       0.00000000       0.00000000      46.30960083
2
Properties=species:S:1:pos:R:3:forces:R:3 energy=11.741783924060265 pbc="F F F"
Mg       0.00000000       0.00000000       0.00000000       0.00000000       0.00000000     -33.40769958
Mg       0.00000000       0.00000000       1.23818182       0.00000000       0.00000000      33.40769958
2
Properties=species:S:1:pos:R:3:forces:R:3 energy=9.983131423089768 pbc="F F F"
Mg       0.00000000       0.00000000       0.00000000       0.00000000       0.00000000     -27.07632828
Mg       0.00000000       0.00000000       1.29696970       0.00000000       0.00000000      27.07632828
2
Properties=species:S:1:pos:R:3:forces:R:3 energy=8.54225215155438 pbc="F F F"
Mg       0.00000000       0.00000000       0.00000000       0.00000000       0.00000000     -21.78587151
Mg       0.00000000       0.00000000       1.35575758       0.00000000       0.00000000      21.78587151
2
Properties=species:S:1:pos:R:3:forces:R:3 energy=7.441172914400034 pbc="F F F"
Mg       0.00000000       0.00000000       0.00000000       0.00000000       0.00000000     -15.62900066
Mg       0.00000000       0.00000000       1.41454545       0.00000000       0.00000000      15.62900066
2
Properties=species:S:1:pos:R:3:forces:R:3 energy=6.684057776810023 pbc="F F F"
Mg       0.00000000       0.00000000       0.00000000       0.00000000       0.00000000     -10.51078033
Mg       0.00000000       0.00000000       1.47333333       0.00000000       0.00000000      10.51078033
2
Properties=species:S:1:pos:R:3:forces:R:3 energy=6.148742844160259 pbc="F F F"
Mg       0.00000000       0.00000000       0.00000000       0.00000000       0.00000000      -8.19048119
Mg       0.00000000       0.00000000       1.53212121       0.00000000       0.00000000       8.19048119
2
Properties=species:S:1:pos:R:3:forces:R:3 energy=5.674653621578366 pbc="F F F"
Mg       0.00000000       0.00000000       0.00000000       0.00000000       0.00000000      -8.20363235
Mg       0.00000000       0.00000000       1.59090909       0.00000000       0.00000000       8.20363235
2
Properties=species:S:1:pos:R:3:forces:R:3 energy=5.168849344407486 pbc="F F F"
Mg       0.00000000       0.00000000       0.00000000       0.00000000       0.00000000      -9.01968098
Mg       0.00000000       0.00000000       1.64969697       0.00000000       0.00000000       9.01968098
2
Properties=species:S:1:pos:R:3:forces:R:3 energy=4.620584409595945 pbc="F F F"
Mg       0.00000000       0.00000000       0.00000000       0.00000000       0.00000000      -9.53836060
Mg       0.00000000       0.00000000       1.70848485       0.00000000       0.00000000       9.53836060
2
Properties=species:S:1:pos:R:3:forces:R:3 energy=4.059032926254507 pbc="F F F"
Mg       0.00000000       0.00000000       0.00000000       0.00000000       0.00000000      -9.47566795
Mg       0.00000000       0.00000000       1.76727273       0.00000000       0.00000000       9.47566795
2
Properties=species:S:1:pos:R:3:forces:R:3 energy=3.5149839622497487 pbc="F F F"
Mg       0.00000000       0.00000000       0.00000000       0.00000000       0.00000000      -8.97896862
Mg       0.00000000       0.00000000       1.82606061       0.00000000       0.00000000       8.97896862
2
Properties=species:S:1:pos:R:3:forces:R:3 energy=3.0079330371450954 pbc="F F F"
Mg       0.00000000       0.00000000       0.00000000       0.00000000       0.00000000      -8.24400997
Mg       0.00000000       0.00000000       1.88484848       0.00000000       0.00000000       8.24400997
2
Properties=species:S:1:pos:R:3:forces:R:3 energy=2.5479538957801897 pbc="F F F"
Mg       0.00000000       0.00000000       0.00000000       0.00000000       0.00000000      -7.39185905
Mg       0.00000000       0.00000000       1.94363636       0.00000000       0.00000000       7.39185905
2
Properties=species:S:1:pos:R:3:forces:R:3 energy=2.139773640988274 pbc="F F F"
Mg       0.00000000       0.00000000       0.00000000       0.00000000       0.00000000      -6.49137640
Mg       0.00000000       0.00000000       2.00242424       0.00000000       0.00000000       6.49137640
2
Properties=species:S:1:pos:R:3:forces:R:3 energy=1.7845440695973152 pbc="F F F"
Mg       0.00000000       0.00000000       0.00000000       0.00000000       0.00000000      -5.60008860
Mg       0.00000000       0.00000000       2.06121212       0.00000000       0.00000000       5.60008860
2
Properties=species:S:1:pos:R:3:forces:R:3 energy=1.480080435965689 pbc="F F F"
Mg       0.00000000       0.00000000       0.00000000       0.00000000       0.00000000      -4.77249336
Mg       0.00000000       0.00000000       2.12000000       0.00000000       0.00000000       4.77249336
2
Properties=species:S:1:pos:R:3:forces:R:3 energy=1.2213871966273178 pbc="F F F"
Mg       0.00000000       0.00000000       0.00000000       0.00000000       0.00000000      -4.04750443
Mg       0.00000000       0.00000000       2.17878788       0.00000000       0.00000000       4.04750443
2
Properties=species:S:1:pos:R:3:forces:R:3 energy=1.0018563884333536 pbc="F F F"
Mg       0.00000000       0.00000000       0.00000000       0.00000000       0.00000000      -3.44106984
Mg       0.00000000       0.00000000       2.23757576       0.00000000       0.00000000       3.44106984
2
Properties=species:S:1:pos:R:3:forces:R:3 energy=0.8145210914730711 pbc="F F F"
Mg       0.00000000       0.00000000       0.00000000       0.00000000       0.00000000      -2.95064282
Mg       0.00000000       0.00000000       2.29636364       0.00000000       0.00000000       2.95064282
2
Properties=species:S:1:pos:R:3:forces:R:3 energy=0.65291998694274 pbc="F F F"
Mg       0.00000000       0.00000000       0.00000000       0.00000000       0.00000000      -2.56274557
Mg       0.00000000       0.00000000       2.35515152       0.00000000       0.00000000       2.56274557
2
Properties=species:S:1:pos:R:3:forces:R:3 energy=0.5115869067641933 pbc="F F F"
Mg       0.00000000       0.00000000       0.00000000       0.00000000       0.00000000      -2.25724554
Mg       0.00000000       0.00000000       2.41393939       0.00000000       0.00000000       2.25724554
2
Properties=species:S:1:pos:R:3:forces:R:3 energy=0.3863820688071277 pbc="F F F"
Mg       0.00000000       0.00000000       0.00000000       0.00000000       0.00000000      -2.00992656
Mg       0.00000000       0.00000000       2.47272727       0.00000000       0.00000000       2.00992656
2
Properties=species:S:1:pos:R:3:forces:R:3 energy=0.27461128009095254 pbc="F F F"
Mg       0.00000000       0.00000000       0.00000000       0.00000000       0.00000000      -1.79631674
Mg       0.00000000       0.00000000       2.53151515       0.00000000       0.00000000       1.79631674
2
Properties=species:S:1:pos:R:3:forces:R:3 energy=0.17491088364522786 pbc="F F F"
Mg       0.00000000       0.00000000       0.00000000       0.00000000       0.00000000      -1.59663761
Mg       0.00000000       0.00000000       2.59030303       0.00000000       0.00000000       1.59663761
2
Properties=species:S:1:pos:R:3:forces:R:3 energy=0.08684231362871986 pbc="F F F"
Mg       0.00000000       0.00000000       0.00000000       0.00000000       0.00000000      -1.39947081
Mg       0.00000000       0.00000000       2.64909091       0.00000000       0.00000000       1.39947081
2
Properties=species:S:1:pos:R:3:forces:R:3 energy=0.01036847581658247 pbc="F F F"
Mg       0.00000000       0.00000000       0.00000000       0.00000000       0.00000000      -1.20243013
Mg       0.00000000       0.00000000       2.70787879       0.00000000       0.00000000       1.20243013
2
Properties=species:S:1:pos:R:3:forces:R:3 energy=-0.05461897039568061 pbc="F F F"
Mg       0.00000000       0.00000000       0.00000000       0.00000000       0.00000000      -1.00977969
Mg       0.00000000       0.00000000       2.76666667       0.00000000       0.00000000       1.00977969
2
Properties=species:S:1:pos:R:3:forces:R:3 energy=-0.10857933289136432 pbc="F F F"
Mg       0.00000000       0.00000000       0.00000000       0.00000000       0.00000000      -0.82841110
Mg       0.00000000       0.00000000       2.82545455       0.00000000       0.00000000       0.82841110
2
Properties=species:S:1:pos:R:3:forces:R:3 energy=-0.15235679916681977 pbc="F F F"
Mg       0.00000000       0.00000000       0.00000000       0.00000000       0.00000000      -0.66411024
Mg       0.00000000       0.00000000       2.88424242       0.00000000       0.00000000       0.66411024
2
Properties=species:S:1:pos:R:3:forces:R:3 energy=-0.18705251127528896 pbc="F F F"
Mg       0.00000000       0.00000000       0.00000000       0.00000000       0.00000000      -0.51961708
Mg       0.00000000       0.00000000       2.94303030       0.00000000       0.00000000       0.51961708
2
Properties=species:S:1:pos:R:3:forces:R:3 energy=-0.2138369256551651 pbc="F F F"
Mg       0.00000000       0.00000000       0.00000000       0.00000000       0.00000000      -0.39476424
Mg       0.00000000       0.00000000       3.00181818       0.00000000       0.00000000       0.39476424
2
Properties=species:S:1:pos:R:3:forces:R:3 energy=-0.23382079601461056 pbc="F F F"
Mg       0.00000000       0.00000000       0.00000000       0.00000000       0.00000000      -0.28796864
Mg       0.00000000       0.00000000       3.06060606       0.00000000       0.00000000       0.28796864
2
Properties=species:S:1:pos:R:3:forces:R:3 energy=-0.2480201796740355 pbc="F F F"
Mg       0.00000000       0.00000000       0.00000000       0.00000000       0.00000000      -0.19779436
Mg       0.00000000       0.00000000       3.11939394       0.00000000       0.00000000       0.19779436
2
Properties=species:S:1:pos:R:3:forces:R:3 energy=-0.25738486267868016 pbc="F F F"
Mg       0.00000000       0.00000000       0.00000000       0.00000000       0.00000000      -0.12331824
Mg       0.00000000       0.00000000       3.17818182       0.00000000       0.00000000       0.12331824
2
Properties=species:S:1:pos:R:3:forces:R:3 energy=-0.26279028528848514 pbc="F F F"
Mg       0.00000000       0.00000000       0.00000000       0.00000000       0.00000000      -0.06253419
Mg       0.00000000       0.00000000       3.23696970       0.00000000       0.00000000       0.06253419
2
Properties=species:S:1:pos:R:3:forces:R:3 energy=-0.264903996121989 pbc="F F F"
Mg       0.00000000       0.00000000       0.00000000       0.00000000       0.00000000      -0.01017342
Mg       0.00000000       0.00000000       3.29575758       0.00000000       0.00000000       0.01017342
2
Properties=species:S:1:pos:R:3:forces:R:3 energy=-0.26402107574858047 pbc="F F F"
Mg       0.00000000       0.00000000       0.00000000       0.00000000       0.00000000       0.04020366
Mg       0.00000000       0.00000000       3.35454545       0.00000000       0.00000000      -0.04020366
2
Properties=species:S:1:pos:R:3:forces:R:3 energy=-0.2601935499437177 pbc="F F F"
Mg       0.00000000       0.00000000       0.00000000       0.00000000       0.00000000       0.08946034
Mg       0.00000000       0.00000000       3.41333333       0.00000000       0.00000000      -0.08946034
2
Properties=species:S:1:pos:R:3:forces:R:3 energy=-0.2536356238878394 pbc="F F F"
Mg       0.00000000       0.00000000       0.00000000       0.00000000       0.00000000       0.13195865
Mg       0.00000000       0.00000000       3.47212121       0.00000000       0.00000000      -0.13195865
2
Properties=species:S:1:pos:R:3:forces:R:3 energy=-0.2449181480152445 pbc="F F F"
Mg       0.00000000       0.00000000       0.00000000       0.00000000       0.00000000       0.16240071
Mg       0.00000000       0.00000000       3.53090909       0.00000000       0.00000000      -0.16240071
2
Properties=species:S:1:pos:R:3:forces:R:3 energy=-0.2347972176387373 pbc="F F F"
Mg       0.00000000       0.00000000       0.00000000       0.00000000       0.00000000       0.17989731
Mg       0.00000000       0.00000000       3.58969697       0.00000000       0.00000000      -0.17989731
2
Properties=species:S:1:pos:R:3:forces:R:3 energy=-0.2239749600216798 pbc="F F F"
Mg       0.00000000       0.00000000       0.00000000       0.00000000       0.00000000       0.18678889
Mg       0.00000000       0.00000000       3.64848485       0.00000000       0.00000000      -0.18678889
2
Properties=species:S:1:pos:R:3:forces:R:3 energy=-0.21297746044644605 pbc="F F F"
Mg       0.00000000       0.00000000       0.00000000       0.00000000       0.00000000       0.18641776
Mg       0.00000000       0.00000000       3.70727273       0.00000000       0.00000000      -0.18641776
2
Properties=species:S:1:pos:R:3:forces:R:3 energy=-0.20213826791580508 pbc="F F F"
Mg       0.00000000       0.00000000       0.00000000       0.00000000       0.00000000       0.18185139
Mg       0.00000000       0.00000000       3.76606061       0.00000000       0.00000000      -0.18185139
2
Properties=species:S:1:pos:R:3:forces:R:3 energy=-0.19163217342492805 pbc="F F F"
Mg       0.00000000       0.00000000       0.00000000       0.00000000       0.00000000       0.17542800
Mg       0.00000000       0.00000000       3.82484848       0.00000000       0.00000000      -0.17542800
2
Properties=species:S:1:pos:R:3:forces:R:3 energy=-0.1815178224247795 pbc="F F F"
Mg       0.00000000       0.00000000       0.00000000       0.00000000       0.00000000       0.16869667
Mg       0.00000000       0.00000000       3.88363636       0.00000000       0.00000000      -0.16869667
2
Properties=species:S:1:pos:R:3:forces:R:3 energy=-0.17178624871168385 pbc="F F F"
Mg       0.00000000       0.00000000       0.00000000       0.00000000       0.00000000       0.16251099
Mg       0.00000000       0.00000000       3.94242424       0.00000000       0.00000000      -0.16251099
2
Properties=species:S:1:pos:R:3:forces:R:3 energy=-0.16239403247986464 pbc="F F F"
Mg       0.00000000       0.00000000       0.00000000       0.00000000       0.00000000       0.15715948
Mg       0.00000000       0.00000000       4.00121212       0.00000000       0.00000000      -0.15715948
2
Properties=species:S:1:pos:R:3:forces:R:3 energy=-0.15329436024968066 pbc="F F F"
Mg       0.00000000       0.00000000       0.00000000       0.00000000       0.00000000       0.15250081
Mg       0.00000000       0.00000000       4.06000000       0.00000000       0.00000000      -0.15250081
2
Properties=species:S:1:pos:R:3:forces:R:3 energy=-0.14445858638626305 pbc="F F F"
Mg       0.00000000       0.00000000       0.00000000       0.00000000       0.00000000       0.14809424
Mg       0.00000000       0.00000000       4.11878788       0.00000000       0.00000000      -0.14809424
2
Properties=species:S:1:pos:R:3:forces:R:3 energy=-0.1358889075272736 pbc="F F F"
Mg       0.00000000       0.00000000       0.00000000       0.00000000       0.00000000       0.14333256
Mg       0.00000000       0.00000000       4.17757576       0.00000000       0.00000000      -0.14333256
2
Properties=species:S:1:pos:R:3:forces:R:3 energy=-0.12762554308383778 pbc="F F F"
Mg       0.00000000       0.00000000       0.00000000       0.00000000       0.00000000       0.13757677
Mg       0.00000000       0.00000000       4.23636364       0.00000000       0.00000000      -0.13757677
2
Properties=species:S:1:pos:R:3:forces:R:3 energy=-0.11974328086102567 pbc="F F F"
Mg       0.00000000       0.00000000       0.00000000       0.00000000       0.00000000       0.13029006
Mg       0.00000000       0.00000000       4.29515152       0.00000000       0.00000000      -0.13029006
2
Properties=species:S:1:pos:R:3:forces:R:3 energy=-0.11234301039301339 pbc="F F F"
Mg       0.00000000       0.00000000       0.00000000       0.00000000       0.00000000       0.12115664
Mg       0.00000000       0.00000000       4.35393939       0.00000000       0.00000000      -0.12115664
2
Properties=species:S:1:pos:R:3:forces:R:3 energy=-0.1055351200056622 pbc="F F F"
Mg       0.00000000       0.00000000       0.00000000       0.00000000       0.00000000       0.11015365
Mg       0.00000000       0.00000000       4.41272727       0.00000000       0.00000000      -0.11015365
2
Properties=species:S:1:pos:R:3:forces:R:3 energy=-0.09942259188264113 pbc="F F F"
Mg       0.00000000       0.00000000       0.00000000       0.00000000       0.00000000       0.09757425
Mg       0.00000000       0.00000000       4.47151515       0.00000000       0.00000000      -0.09757425
2
Properties=species:S:1:pos:R:3:forces:R:3 energy=-0.09408278305996341 pbc="F F F"
Mg       0.00000000       0.00000000       0.00000000       0.00000000       0.00000000       0.08397738
Mg       0.00000000       0.00000000       4.53030303       0.00000000       0.00000000      -0.08397738
2
Properties=species:S:1:pos:R:3:forces:R:3 energy=-0.0895547396975839 pbc="F F F"
Mg       0.00000000       0.00000000       0.00000000       0.00000000       0.00000000       0.07008702
Mg       0.00000000       0.00000000       4.58909091       0.00000000       0.00000000      -0.07008702
2
Properties=species:S:1:pos:R:3:forces:R:3 energy=-0.08583310602626643 pbc="F F F"
Mg       0.00000000       0.00000000       0.00000000       0.00000000       0.00000000       0.05666585
Mg       0.00000000       0.00000000       4.64787879       0.00000000       0.00000000      -0.05666585
2
Properties=species:S:1:pos:R:3:forces:R:3 energy=-0.08286933911968675 pbc="F F F"
Mg       0.00000000       0.00000000       0.00000000       0.00000000       0.00000000       0.04440761
Mg       0.00000000       0.00000000       4.70666667       0.00000000       0.00000000      -0.04440761
2
Properties=species:S:1:pos:R:3:forces:R:3 energy=-0.0805777328658319 pbc="F F F"
Mg       0.00000000       0.00000000       0.00000000       0.00000000       0.00000000       0.03388456
Mg       0.00000000       0.00000000       4.76545455       0.00000000       0.00000000      -0.03388456
2
Properties=species:S:1:pos:R:3:forces:R:3 energy=-0.07884225982986083 pbc="F F F"
Mg       0.00000000       0.00000000       0.00000000       0.00000000       0.00000000       0.02555655
Mg       0.00000000       0.00000000       4.82424242       0.00000000       0.00000000      -0.02555655
2
Properties=species:S:1:pos:R:3:forces:R:3 energy=-0.07752167959156092 pbc="F F F"
Mg       0.00000000       0.00000000       0.00000000       0.00000000       0.00000000       0.01983895
Mg       0.00000000       0.00000000       4.88303030       0.00000000       0.00000000      -0.01983895
2
Properties=species:S:1:pos:R:3:forces:R:3 energy=-0.07645043798271188 pbc="F F F"
Mg       0.00000000       0.00000000       0.00000000       0.00000000       0.00000000       0.01714441
Mg       0.00000000       0.00000000       4.94181818       0.00000000       0.00000000      -0.01714441
2
Properties=species:S:1:pos:R:3:forces:R:3 energy=-0.07543930735907267 pbc="F F F"
Mg       0.00000000       0.00000000       0.00000000       0.00000000       0.00000000       0.01784010
Mg       0.00000000       0.00000000       5.00060606       0.00000000       0.00000000      -0.01784010
2
Properties=species:S:1:pos:R:3:forces:R:3 energy=-0.07428429602586549 pbc="F F F"
Mg       0.00000000       0.00000000       0.00000000       0.00000000       0.00000000       0.02201492
Mg       0.00000000       0.00000000       5.05939394       0.00000000       0.00000000      -0.02201492
2
Properties=species:S:1:pos:R:3:forces:R:3 energy=-0.0727937406017121 pbc="F F F"
Mg       0.00000000       0.00000000       0.00000000       0.00000000       0.00000000       0.02907152
Mg       0.00000000       0.00000000       5.11818182       0.00000000       0.00000000      -0.02907152
2
Properties=species:S:1:pos:R:3:forces:R:3 energy=-0.07084279645031338 pbc="F F F"
Mg       0.00000000       0.00000000       0.00000000       0.00000000       0.00000000       0.03727454
Mg       0.00000000       0.00000000       5.17696970       0.00000000       0.00000000      -0.03727454
2
Properties=species:S:1:pos:R:3:forces:R:3 energy=-0.06844698763524522 pbc="F F F"
Mg       0.00000000       0.00000000       0.00000000       0.00000000       0.00000000       0.04363652
Mg       0.00000000       0.00000000       5.23575758       0.00000000       0.00000000      -0.04363652
2
Properties=species:S:1:pos:R:3:forces:R:3 energy=-0.06581047093160934 pbc="F F F"
Mg       0.00000000       0.00000000       0.00000000       0.00000000       0.00000000       0.04509819
Mg       0.00000000       0.00000000       5.29454545       0.00000000       0.00000000      -0.04509819
2
Properties=species:S:1:pos:R:3:forces:R:3 energy=-0.06323466301155914 pbc="F F F"
Mg       0.00000000       0.00000000       0.00000000       0.00000000       0.00000000       0.04225214
Mg       0.00000000       0.00000000       5.35333333       0.00000000       0.00000000      -0.04225214
2
Properties=species:S:1:pos:R:3:forces:R:3 energy=-0.06077452832231783 pbc="F F F"
Mg       0.00000000       0.00000000       0.00000000       0.00000000       0.00000000       0.04290258
Mg       0.00000000       0.00000000       5.41212121       0.00000000       0.00000000      -0.04290258
2
Properties=species:S:1:pos:R:3:forces:R:3 energy=-0.05799273964030895 pbc="F F F"
Mg       0.00000000       0.00000000       0.00000000       0.00000000       0.00000000       0.05283064
Mg       0.00000000       0.00000000       5.47090909       0.00000000       0.00000000      -0.05283064
2
Properties=species:S:1:pos:R:3:forces:R:3 energy=-0.054608027382236336 pbc="F F F"
Mg       0.00000000       0.00000000       0.00000000       0.00000000       0.00000000       0.06051037
Mg       0.00000000       0.00000000       5.52969697       0.00000000       0.00000000      -0.06051037
2
Properties=species:S:1:pos:R:3:forces:R:3 energy=-0.05113185500678258 pbc="F F F"
Mg       0.00000000       0.00000000       0.00000000       0.00000000       0.00000000       0.05610997
Mg       0.00000000       0.00000000       5.58848485       0.00000000       0.00000000      -0.05610997
2
Properties=species:S:1:pos:R:3:forces:R:3 energy=-0.048053533113627256 pbc="F F F"
Mg       0.00000000       0.00000000       0.00000000       0.00000000       0.00000000       0.04973009
Mg       0.00000000       0.00000000       5.64727273       0.00000000       0.00000000      -0.04973009
2
Properties=species:S:1:pos:R:3:forces:R:3 energy=-0.045038994814697156 pbc="F F F"
Mg       0.00000000       0.00000000       0.00000000       0.00000000       0.00000000       0.05521147
Mg       0.00000000       0.00000000       5.70606061       0.00000000       0.00000000      -0.05521147
2
Properties=species:S:1:pos:R:3:forces:R:3 energy=-0.04141035472566906 pbc="F F F"
Mg       0.00000000       0.00000000       0.00000000       0.00000000       0.00000000       0.06728006
Mg       0.00000000       0.00000000       5.76484848       0.00000000       0.00000000      -0.06728006
2
Properties=species:S:1:pos:R:3:forces:R:3 energy=-0.037446546481106055 pbc="F F F"
Mg       0.00000000       0.00000000       0.00000000       0.00000000       0.00000000       0.06390464
Mg       0.00000000       0.00000000       5.82363636       0.00000000       0.00000000      -0.06390464
2
Properties=species:S:1:pos:R:3:forces:R:3 energy=-0.034274394967396406 pbc="F F F"
Mg       0.00000000       0.00000000       0.00000000       0.00000000       0.00000000       0.04262924
Mg       0.00000000       0.00000000       5.88242424       0.00000000       0.00000000      -0.04262924
2
Properties=species:S:1:pos:R:3:forces:R:3 energy=-0.03244679775107019 pbc="F F F"
Mg       0.00000000       0.00000000       0.00000000       0.00000000       0.00000000       0.02064750
Mg       0.00000000       0.00000000       5.94121212       0.00000000       0.00000000      -0.02064750
2
Properties=species:S:1:pos:R:3:forces:R:3 energy=-0.03158408913863981 pbc="F F F"
Mg       0.00000000       0.00000000       0.00000000       0.00000000       0.00000000       0.01149992
Mg       0.00000000       0.00000000       6.00000000       0.00000000       0.00000000      -0.01149992
