2
Properties=species:S:1:pos:R:3:forces:R:3 energy=1118.7508640751962 pbc="F F F"
Mg       0.00000000       0.00000000       0.00000000       0.00000000       0.00000000  -15171.14355469
Mg       0.00000000       0.00000000       0.18000000       0.00000000       0.00000000   15171.14355469
2
Properties=species:S:1:pos:R:3:forces:R:3 energy=549.5954075322276 pbc="F F F"
Mg       0.00000000       0.00000000       0.00000000       0.00000000       0.00000000   -5920.94189453
Mg       0.00000000       0.00000000       0.23878788       0.00000000       0.00000000    5920.94189453
2
Properties=species:S:1:pos:R:3:forces:R:3 energy=311.24512677050876 pbc="F F F"
Mg       0.00000000       0.00000000       0.00000000       0.00000000       0.00000000   -2691.65942383
Mg       0.00000000       0.00000000       0.29757576       0.00000000       0.00000000    2691.65942383
2
Properties=species:S:1:pos:R:3:forces:R:3 energy=197.44031720653192 pbc="F F F"
Mg       0.00000000       0.00000000       0.00000000       0.00000000       0.00000000   -1359.04821777
Mg       0.00000000       0.00000000       0.35636364       0.00000000       0.00000000    1359.04821777
2
Properties=species:S:1:pos:R:3:forces:R:3 energy=137.87236983150788 pbc="F F F"
Mg       0.00000000       0.00000000       0.00000000       0.00000000       0.00000000    -740.93682861
Mg       0.00000000       0.00000000       0.41515152       0.00000000       0.00000000     740.93682861
2
Properties=species:S:1:pos:R:3:forces:R:3 energy=104.4430180438742 pbc="F F F"
Mg       0.00000000       0.00000000       0.00000000       0.00000000       0.00000000    -430.05661011
Mg       0.00000000       0.00000000       0.47393939       0.00000000       0.00000000     430.05661011
2
Properties=species:S:1:pos:R:3:forces:R:3 energy=84.4887334265906 pbc="F F F"
Mg       0.00000000       0.00000000       0.00000000       0.00000000       0.00000000    -265.73724365
Mg       0.00000000       0.00000000       0.53272727       0.00000000       0.00000000     265.73724365
2
Properties=species:S:1:pos:R:3:forces:R:3 energy=71.72856351970817 pbc="F F F"
Mg       0.00000000       0.00000000       0.00000000       0.00000000       0.00000000    -177.55947876
Mg       0.00000000       0.00000000       0.59151515       0.00000000       0.00000000     177.55947876
2
Properties=species:S:1:pos:R:3:forces:R:3 energy=62.7886680228739 pbc="F F F"
Mg       0.00000000       0.00000000       0.00000000       0.00000000       0.00000000    -131.89048767
Mg       0.00000000       0.00000000       0.65030303       0.00000000       0.00000000     131.89048767
2
Properties=species:S:1:pos:R:3:forces:R:3 energy=55.73853929518258 pbc="F F F"
Mg       0.00000000       0.00000000       0.00000000       0.00000000       0.00000000    -111.07258606
Mg       0.00000000       0.00000000       0.70909091       0.00000000       0.00000000     111.07258606
2
Properties=species:S:1:pos:R:3:forces:R:3 energy=49.46073046889839 pbc="F F F"
Mg       0.00000000       0.00000000       0.00000000       0.00000000       0.00000000    -103.99557495
Mg       0.00000000       0.00000000       0.76787879       0.00000000       0.00000000     103.99557495
2
Properties=species:S:1:pos:R:3:forces:R:3 energy=43.42809618995736 pbc="F F F"
Mg       0.00000000       0.00000000       0.00000000       0.00000000       0.00000000    -101.20077515
Mg       0.00000000       0.00000000       0.82666667       0.00000000       0.00000000     101.20077515
2
Properties=species:S:1:pos:R:3:forces:R:3 energy=37.59435662082501 pbc="F F F"
Mg       0.00000000       0.00000000       0.00000000       0.00000000       0.00000000     -97.34839630
Mg       0.00000000       0.00000000       0.88545455       0.00000000       0.00000000      97.34839630
2
Properties=species:S:1:pos:R:3:forces:R:3 energy=31.923632677054663 pbc="F F F"
Mg       0.00000000       0.00000000       0.00000000       0.00000000       0.00000000     -95.80072784
Mg       0.00000000       0.00000000       0.94424242       0.00000000       0.00000000      95.80072784
2
Properties=species:S:1:pos:R:3:forces:R:3 energy=26.40313186640071 pbc="F F F"
Mg       0.00000000       0.00000000       0.00000000       0.00000000       0.00000000     -90.76411438
Mg       0.00000000       0.00000000       1.00303030       0.00000000       0.00000000      90.76411438
2
Properties=species:S:1:pos:R:3:forces:R:3 energy=21.403549398033554 pbc="F F F"
Mg       0.00000000       0.00000000       0.00000000       0.00000000       0.00000000     -78.33015442
Mg       0.00000000       0.00000000       1.06181818       0.00000000       0.00000000      78.33015442
2
Properties=species:S:1:pos:R:3:forces:R:3 energy=17.253502475606417 pbc="F F F"
Mg       0.00000000       0.00000000       0.00000000       0.00000000       0.00000000     -62.68608093
Mg       0.00000000       0.00000000       1.12060606       0.00000000       0.00000000      62.68608093
2
Properties=species:S:1:pos:R:3:forces:R:3 energy=14.048758272353963 pbc="F F F"
Mg       0.00000000       0.00000000       0.00000000       0.00000000       0.00000000     -46.30957794
Mg       0.00000000       0.00000000       1.17939394       0.00000000       0.00000000      46.30957794
2
Properties=species:S:1:pos:R:3:forces:R:3 energy=11.74178773875753 pbc="F F F"
Mg       0.00000000       0.00000000       0.00000000       0.00000000       0.00000000     -33.40774155
Mg       0.00000000       0.00000000       1.23818182       0.00000000       0.00000000      33.40774155
2
Properties=species:S:1:pos:R:3:forces:R:3 energy=9.983134284112717 pbc="F F F"
Mg       0.00000000       0.00000000       0.00000000       0.00000000       0.00000000     -27.07633209
Mg       0.00000000       0.00000000       1.29696970       0.00000000       0.00000000      27.07633209
2
Properties=species:S:1:pos:R:3:forces:R:3 energy=8.542255966251645 pbc="F F F"
Mg       0.00000000       0.00000000       0.00000000       0.00000000       0.00000000     -21.78589439
Mg       0.00000000       0.00000000       1.35575758       0.00000000       0.00000000      21.78589439
2
Properties=species:S:1:pos:R:3:forces:R:3 energy=7.441175775422983 pbc="F F F"
Mg       0.00000000       0.00000000       0.00000000       0.00000000       0.00000000     -15.62900734
Mg       0.00000000       0.00000000       1.41454545       0.00000000       0.00000000      15.62900734
2
Properties=species:S:1:pos:R:3:forces:R:3 energy=6.684056346298548 pbc="F F F"
Mg       0.00000000       0.00000000       0.00000000       0.00000000       0.00000000     -10.51078033
Mg       0.00000000       0.00000000       1.47333333       0.00000000       0.00000000      10.51078033
2
Properties=species:S:1:pos:R:3:forces:R:3 energy=6.148742367323101 pbc="F F F"
Mg       0.00000000       0.00000000       0.00000000       0.00000000       0.00000000      -8.19048595
Mg       0.00000000       0.00000000       1.53212121       0.00000000       0.00000000       8.19048595
2
Properties=species:S:1:pos:R:3:forces:R:3 energy=5.674655528926999 pbc="F F F"
Mg       0.00000000       0.00000000       0.00000000       0.00000000       0.00000000      -8.20363426
Mg       0.00000000       0.00000000       1.59090909       0.00000000       0.00000000       8.20363426
2
Properties=species:S:1:pos:R:3:forces:R:3 energy=5.168849293722332 pbc="F F F"
Mg       0.00000000       0.00000000       0.00000000       0.00000000       0.00000000      -9.01968002
Mg       0.00000000       0.00000000       1.64969697       0.00000000       0.00000000       9.01968002
2
Properties=species:S:1:pos:R:3:forces:R:3 energy=4.620584886433103 pbc="F F F"
Mg       0.00000000       0.00000000       0.00000000       0.00000000       0.00000000      -9.53836060
Mg       0.00000000       0.00000000       1.70848485       0.00000000       0.00000000       9.53836060
2
Properties=species:S:1:pos:R:3:forces:R:3 energy=4.059035310440298 pbc="F F F"
Mg       0.00000000       0.00000000       0.00000000       0.00000000       0.00000000      -9.47567272
Mg       0.00000000       0.00000000       1.76727273       0.00000000       0.00000000       9.47567272
2
Properties=species:S:1:pos:R:3:forces:R:3 energy=3.5149839622497487 pbc="F F F"
Mg       0.00000000       0.00000000       0.00000000       0.00000000       0.00000000      -8.97897339
Mg       0.00000000       0.00000000       1.82606061       0.00000000       0.00000000       8.97897339
2
Properties=species:S:1:pos:R:3:forces:R:3 energy=3.0079339781481234 pbc="F F F"
Mg       0.00000000       0.00000000       0.00000000       0.00000000       0.00000000      -8.24401665
Mg       0.00000000       0.00000000       1.88484848       0.00000000       0.00000000       8.24401665
2
Properties=species:S:1:pos:R:3:forces:R:3 energy=2.547954372617348 pbc="F F F"
Mg       0.00000000       0.00000000       0.00000000       0.00000000       0.00000000      -7.39185953
Mg       0.00000000       0.00000000       1.94363636       0.00000000       0.00000000       7.39185953
2
Properties=species:S:1:pos:R:3:forces:R:3 energy=2.1397743562440112 pbc="F F F"
Mg       0.00000000       0.00000000       0.00000000       0.00000000       0.00000000      -6.49137545
Mg       0.00000000       0.00000000       2.00242424       0.00000000       0.00000000       6.49137545
2
Properties=species:S:1:pos:R:3:forces:R:3 energy=1.78454275829513 pbc="F F F"
Mg       0.00000000       0.00000000       0.00000000       0.00000000       0.00000000      -5.60008383
Mg       0.00000000       0.00000000       2.06121212       0.00000000       0.00000000       5.60008383
2
Properties=species:S:1:pos:R:3:forces:R:3 energy=1.4800807935935576 pbc="F F F"
Mg       0.00000000       0.00000000       0.00000000       0.00000000       0.00000000      -4.77249622
Mg       0.00000000       0.00000000       2.12000000       0.00000000       0.00000000       4.77249622
2
Properties=species:S:1:pos:R:3:forces:R:3 energy=1.2213871966273178 pbc="F F F"
Mg       0.00000000       0.00000000       0.00000000       0.00000000       0.00000000      -4.04750156
Mg       0.00000000       0.00000000       2.17878788       0.00000000       0.00000000       4.04750156
2
Properties=species:S:1:pos:R:3:forces:R:3 energy=1.0018556731776163 pbc="F F F"
Mg       0.00000000       0.00000000       0.00000000       0.00000000       0.00000000      -3.44107056
Mg       0.00000000       0.00000000       2.23757576       0.00000000       0.00000000       3.44107056
2
Properties=species:S:1:pos:R:3:forces:R:3 energy=0.8145207338452024 pbc="F F F"
Mg       0.00000000       0.00000000       0.00000000       0.00000000       0.00000000      -2.95064306
Mg       0.00000000       0.00000000       2.29636364       0.00000000       0.00000000       2.95064306
2
Properties=species:S:1:pos:R:3:forces:R:3 energy=0.6529193312916475 pbc="F F F"
Mg       0.00000000       0.00000000       0.00000000       0.00000000       0.00000000      -2.56274533
Mg       0.00000000       0.00000000       2.35515152       0.00000000       0.00000000       2.56274533
2
Properties=species:S:1:pos:R:3:forces:R:3 energy=0.5115870919137718 pbc="F F F"
Mg       0.00000000       0.00000000       0.00000000       0.00000000       0.00000000      -2.25724459
Mg       0.00000000       0.00000000       2.41393939       0.00000000       0.00000000       2.25724459
2
Properties=species:S:1:pos:R:3:forces:R:3 energy=0.38638149622735807 pbc="F F F"
Mg       0.00000000       0.00000000       0.00000000       0.00000000       0.00000000      -2.00992703
Mg       0.00000000       0.00000000       2.47272727       0.00000000       0.00000000       2.00992703
2
Properties=species:S:1:pos:R:3:forces:R:3 energy=0.27461127187940915 pbc="F F F"
Mg       0.00000000       0.00000000       0.00000000       0.00000000       0.00000000      -1.79631746
Mg       0.00000000       0.00000000       2.53151515       0.00000000       0.00000000       1.79631746
2
Properties=species:S:1:pos:R:3:forces:R:3 energy=0.17491083858777076 pbc="F F F"
Mg       0.00000000       0.00000000       0.00000000       0.00000000       0.00000000      -1.59663880
Mg       0.00000000       0.00000000       2.59030303       0.00000000       0.00000000       1.59663880
2
Properties=species:S:1:pos:R:3:forces:R:3 energy=0.08684207521014076 pbc="F F F"
Mg       0.00000000       0.00000000       0.00000000       0.00000000       0.00000000      -1.39947140
Mg       0.00000000       0.00000000       2.64909091       0.00000000       0.00000000       1.39947140
2
Properties=species:S:1:pos:R:3:forces:R:3 energy=0.010368341706131726 pbc="F F F"
Mg       0.00000000       0.00000000       0.00000000       0.00000000       0.00000000      -1.20243132
Mg       0.00000000       0.00000000       2.70787879       0.00000000       0.00000000       1.20243132
2
Properties=species:S:1:pos:R:3:forces:R:3 energy=-0.05461897039568061 pbc="F F F"
Mg       0.00000000       0.00000000       0.00000000       0.00000000       0.00000000      -1.00978100
Mg       0.00000000       0.00000000       2.76666667       0.00000000       0.00000000       1.00978100
2
Properties=species:S:1:pos:R:3:forces:R:3 energy=-0.10857886461972302 pbc="F F F"
Mg       0.00000000       0.00000000       0.00000000       0.00000000       0.00000000      -0.82841170
Mg       0.00000000       0.00000000       2.82545455       0.00000000       0.00000000       0.82841170
2
Properties=species:S:1:pos:R:3:forces:R:3 energy=-0.15235688857378693 pbc="F F F"
Mg       0.00000000       0.00000000       0.00000000       0.00000000       0.00000000      -0.66411102
Mg       0.00000000       0.00000000       2.88424242       0.00000000       0.00000000       0.66411102
2
Properties=species:S:1:pos:R:3:forces:R:3 energy=-0.18705279439735165 pbc="F F F"
Mg       0.00000000       0.00000000       0.00000000       0.00000000       0.00000000      -0.51961726
Mg       0.00000000       0.00000000       2.94303030       0.00000000       0.00000000       0.51961726
2
Properties=species:S:1:pos:R:3:forces:R:3 energy=-0.21383711937026062 pbc="F F F"
Mg       0.00000000       0.00000000       0.00000000       0.00000000       0.00000000      -0.39476407
Mg       0.00000000       0.00000000       3.00181818       0.00000000       0.00000000       0.39476407
2
Properties=species:S:1:pos:R:3:forces:R:3 energy=-0.23382107913667324 pbc="F F F"
Mg       0.00000000       0.00000000       0.00000000       0.00000000       0.00000000      -0.28796840
Mg       0.00000000       0.00000000       3.06060606       0.00000000       0.00000000       0.28796840
2
Properties=species:S:1:pos:R:3:forces:R:3 energy=-0.2480201796740355 pbc="F F F"
Mg       0.00000000       0.00000000       0.00000000       0.00000000       0.00000000      -0.19779362
Mg       0.00000000       0.00000000       3.11939394       0.00000000       0.00000000       0.19779362
2
Properties=species:S:1:pos:R:3:forces:R:3 energy=-0.257384773271713 pbc="F F F"
Mg       0.00000000       0.00000000       0.00000000       0.00000000       0.00000000      -0.12331805
Mg       0.00000000       0.00000000       3.17818182       0.00000000       0.00000000       0.12331805
2
Properties=species:S:1:pos:R:3:forces:R:3 energy=-0.26279021078267917 pbc="F F F"
Mg       0.00000000       0.00000000       0.00000000       0.00000000       0.00000000      -0.06253426
Mg       0.00000000       0.00000000       3.23696970       0.00000000       0.00000000       0.06253426
2
Properties=species:S:1:pos:R:3:forces:R:3 energy=-0.2649037938413766 pbc="F F F"
Mg       0.00000000       0.00000000       0.00000000       0.00000000       0.00000000      -0.01017343
Mg       0.00000000       0.00000000       3.29575758       0.00000000       0.00000000       0.01017343
2
Properties=species:S:1:pos:R:3:forces:R:3 energy=-0.2640208630265521 pbc="F F F"
Mg       0.00000000       0.00000000       0.00000000       0.00000000       0.00000000       0.04020360
Mg       0.00000000       0.00000000       3.35454545       0.00000000       0.00000000      -0.04020360
2
Properties=species:S:1:pos:R:3:forces:R:3 energy=-0.26019354396204686 pbc="F F F"
Mg       0.00000000       0.00000000       0.00000000       0.00000000       0.00000000       0.08946033
Mg       0.00000000       0.00000000       3.41333333       0.00000000       0.00000000      -0.08946033
2
Properties=species:S:1:pos:R:3:forces:R:3 energy=-0.2536357878006125 pbc="F F F"
Mg       0.00000000       0.00000000       0.00000000       0.00000000       0.00000000       0.13195851
Mg       0.00000000       0.00000000       3.47212121       0.00000000       0.00000000      -0.13195851
2
Properties=species:S:1:pos:R:3:forces:R:3 energy=-0.24491826088888977 pbc="F F F"
Mg       0.00000000       0.00000000       0.00000000       0.00000000       0.00000000       0.16240056
Mg       0.00000000       0.00000000       3.53090909       0.00000000       0.00000000      -0.16240056
2
Properties=species:S:1:pos:R:3:forces:R:3 energy=-0.23479726011234825 pbc="F F F"
Mg       0.00000000       0.00000000       0.00000000       0.00000000       0.00000000       0.17989740
Mg       0.00000000       0.00000000       3.58969697       0.00000000       0.00000000      -0.17989740
2
Properties=species:S:1:pos:R:3:forces:R:3 energy=-0.22397483670661855 pbc="F F F"
Mg       0.00000000       0.00000000       0.00000000       0.00000000       0.00000000       0.18678871
Mg       0.00000000       0.00000000       3.64848485       0.00000000       0.00000000      -0.18678871
2
Properties=species:S:1:pos:R:3:forces:R:3 energy=-0.21297740084180128 pbc="F F F"
Mg       0.00000000       0.00000000       0.00000000       0.00000000       0.00000000       0.18641782
Mg       0.00000000       0.00000000       3.70727273       0.00000000       0.00000000      -0.18641782
2
Properties=species:S:1:pos:R:3:forces:R:3 energy=-0.20213826791580508 pbc="F F F"
Mg       0.00000000       0.00000000       0.00000000       0.00000000       0.00000000       0.18185142
Mg       0.00000000       0.00000000       3.76606061       0.00000000       0.00000000      -0.18185142
2
Properties=species:S:1:pos:R:3:forces:R:3 energy=-0.19163212015592757 pbc="F F F"
Mg       0.00000000       0.00000000       0.00000000       0.00000000       0.00000000       0.17542803
Mg       0.00000000       0.00000000       3.82484848       0.00000000       0.00000000      -0.17542803
2
Properties=species:S:1:pos:R:3:forces:R:3 energy=-0.18151789693058548 pbc="F F F"
Mg       0.00000000       0.00000000       0.00000000       0.00000000       0.00000000       0.16869661
Mg       0.00000000       0.00000000       3.88363636       0.00000000       0.00000000      -0.16869661
2
Properties=species:S:1:pos:R:3:forces:R:3 energy=-0.17178624871168385 pbc="F F F"
Mg       0.00000000       0.00000000       0.00000000       0.00000000       0.00000000       0.16251090
Mg       0.00000000       0.00000000       3.94242424       0.00000000       0.00000000      -0.16251090
2
Properties=species:S:1:pos:R:3:forces:R:3 energy=-0.16239420906392638 pbc="F F F"
Mg       0.00000000       0.00000000       0.00000000       0.00000000       0.00000000       0.15715960
Mg       0.00000000       0.00000000       4.00121212       0.00000000       0.00000000      -0.15715960
2
Properties=species:S:1:pos:R:3:forces:R:3 energy=-0.15329433044735827 pbc="F F F"
Mg       0.00000000       0.00000000       0.00000000       0.00000000       0.00000000       0.15250060
Mg       0.00000000       0.00000000       4.06000000       0.00000000       0.00000000      -0.15250060
2
Properties=species:S:1:pos:R:3:forces:R:3 energy=-0.14445862475410234 pbc="F F F"
Mg       0.00000000       0.00000000       0.00000000       0.00000000       0.00000000       0.14809446
Mg       0.00000000       0.00000000       4.11878788       0.00000000       0.00000000      -0.14809446
2
Properties=species:S:1:pos:R:3:forces:R:3 energy=-0.1358889276491428 pbc="F F F"
Mg       0.00000000       0.00000000       0.00000000       0.00000000       0.00000000       0.14333236
Mg       0.00000000       0.00000000       4.17757576       0.00000000       0.00000000      -0.14333236
2
Properties=species:S:1:pos:R:3:forces:R:3 energy=-0.127625520732096 pbc="F F F"
Mg       0.00000000       0.00000000       0.00000000       0.00000000       0.00000000       0.13757688
Mg       0.00000000       0.00000000       4.23636364       0.00000000       0.00000000      -0.13757688
2
Properties=species:S:1:pos:R:3:forces:R:3 energy=-0.11974335536683164 pbc="F F F"
Mg       0.00000000       0.00000000       0.00000000       0.00000000       0.00000000       0.13029012
Mg       0.00000000       0.00000000       4.29515152       0.00000000       0.00000000      -0.13029012
2
Properties=species:S:1:pos:R:3:forces:R:3 energy=-0.1123429917665619 pbc="F F F"
Mg       0.00000000       0.00000000       0.00000000       0.00000000       0.00000000       0.12115663
Mg       0.00000000       0.00000000       4.35393939       0.00000000       0.00000000      -0.12115663
2
Properties=species:S:1:pos:R:3:forces:R:3 energy=-0.10553514273788538 pbc="F F F"
Mg       0.00000000       0.00000000       0.00000000       0.00000000       0.00000000       0.11015342
Mg       0.00000000       0.00000000       4.41272727       0.00000000       0.00000000      -0.11015342
2
Properties=species:S:1:pos:R:3:forces:R:3 energy=-0.09942262596772196 pbc="F F F"
Mg       0.00000000       0.00000000       0.00000000       0.00000000       0.00000000       0.09757386
Mg       0.00000000       0.00000000       4.47151515       0.00000000       0.00000000      -0.09757386
2
Properties=species:S:1:pos:R:3:forces:R:3 energy=-0.09408271711967434 pbc="F F F"
Mg       0.00000000       0.00000000       0.00000000       0.00000000       0.00000000       0.08397737
Mg       0.00000000       0.00000000       4.53030303       0.00000000       0.00000000      -0.08397737
2
Properties=species:S:1:pos:R:3:forces:R:3 energy=-0.08955474175046974 pbc="F F F"
Mg       0.00000000       0.00000000       0.00000000       0.00000000       0.00000000       0.07008705
Mg       0.00000000       0.00000000       4.58909091       0.00000000       0.00000000      -0.07008705
2
Properties=species:S:1:pos:R:3:forces:R:3 energy=-0.08583310285844427 pbc="F F F"
Mg       0.00000000       0.00000000       0.00000000       0.00000000       0.00000000       0.05666583
Mg       0.00000000       0.00000000       4.64787879       0.00000000       0.00000000      -0.05666583
2
Properties=species:S:1:pos:R:3:forces:R:3 energy=-0.08286930186678376 pbc="F F F"
Mg       0.00000000       0.00000000       0.00000000       0.00000000       0.00000000       0.04440742
Mg       0.00000000       0.00000000       4.70666667       0.00000000       0.00000000      -0.04440742
2
Properties=species:S:1:pos:R:3:forces:R:3 energy=-0.08057770678879982 pbc="F F F"
Mg       0.00000000       0.00000000       0.00000000       0.00000000       0.00000000       0.03388458
Mg       0.00000000       0.00000000       4.76545455       0.00000000       0.00000000      -0.03388458
2
Properties=species:S:1:pos:R:3:forces:R:3 energy=-0.07884228162413448 pbc="F F F"
Mg       0.00000000       0.00000000       0.00000000       0.00000000       0.00000000       0.02555681
Mg       0.00000000       0.00000000       4.82424242       0.00000000       0.00000000      -0.02555681
2
Properties=species:S:1:pos:R:3:forces:R:3 energy=-0.07752170138583456 pbc="F F F"
Mg       0.00000000       0.00000000       0.00000000       0.00000000       0.00000000       0.01983890
Mg       0.00000000       0.00000000       4.88303030       0.00000000       0.00000000      -0.01983890
2
Properties=species:S:1:pos:R:3:forces:R:3 energy=-0.07645046722756613 pbc="F F F"
Mg       0.00000000       0.00000000       0.00000000       0.00000000       0.00000000       0.01714444
Mg       0.00000000       0.00000000       4.94181818       0.00000000       0.00000000      -0.01714444
2
Properties=species:S:1:pos:R:3:forces:R:3 energy=-0.07543932971081446 pbc="F F F"
Mg       0.00000000       0.00000000       0.00000000       0.00000000       0.00000000       0.01784011
Mg       0.00000000       0.00000000       5.00060606       0.00000000       0.00000000      -0.01784011
2
Properties=species:S:1:pos:R:3:forces:R:3 energy=-0.0742842848499946 pbc="F F F"
Mg       0.00000000       0.00000000       0.00000000       0.00000000       0.00000000       0.02201487
Mg       0.00000000       0.00000000       5.05939394       0.00000000       0.00000000      -0.02201487
2
Properties=species:S:1:pos:R:3:forces:R:3 energy=-0.07279372886837307 pbc="F F F"
Mg       0.00000000       0.00000000       0.00000000       0.00000000       0.00000000       0.02907212
Mg       0.00000000       0.00000000       5.11818182       0.00000000       0.00000000      -0.02907212
2
Properties=species:S:1:pos:R:3:forces:R:3 energy=-0.0708428038124006 pbc="F F F"
Mg       0.00000000       0.00000000       0.00000000       0.00000000       0.00000000       0.03727452
Mg       0.00000000       0.00000000       5.17696970       0.00000000       0.00000000      -0.03727452
2
Properties=species:S:1:pos:R:3:forces:R:3 energy=-0.0684470174375676 pbc="F F F"
Mg       0.00000000       0.00000000       0.00000000       0.00000000       0.00000000       0.04363648
Mg       0.00000000       0.00000000       5.23575758       0.00000000       0.00000000      -0.04363648
2
Properties=species:S:1:pos:R:3:forces:R:3 energy=-0.06581057254089033 pbc="F F F"
Mg       0.00000000       0.00000000       0.00000000       0.00000000       0.00000000       0.04509821
Mg       0.00000000       0.00000000       5.29454545       0.00000000       0.00000000      -0.04509821
2
Properties=species:S:1:pos:R:3:forces:R:3 energy=-0.06323467409893666 pbc="F F F"
Mg       0.00000000       0.00000000       0.00000000       0.00000000       0.00000000       0.04225215
Mg       0.00000000       0.00000000       5.35333333       0.00000000       0.00000000      -0.04225215
2
Properties=species:S:1:pos:R:3:forces:R:3 energy=-0.06077433777504446 pbc="F F F"
Mg       0.00000000       0.00000000       0.00000000       0.00000000       0.00000000       0.04290403
Mg       0.00000000       0.00000000       5.41212121       0.00000000       0.00000000      -0.04290403
2
Properties=species:S:1:pos:R:3:forces:R:3 energy=-0.05799273964030895 pbc="F F F"
Mg       0.00000000       0.00000000       0.00000000       0.00000000       0.00000000       0.05283073
Mg       0.00000000       0.00000000       5.47090909       0.00000000       0.00000000      -0.05283073
2
Properties=species:S:1:pos:R:3:forces:R:3 energy=-0.05460802515236374 pbc="F F F"
Mg       0.00000000       0.00000000       0.00000000       0.00000000       0.00000000       0.06050999
Mg       0.00000000       0.00000000       5.52969697       0.00000000       0.00000000      -0.06050999
2
Properties=species:S:1:pos:R:3:forces:R:3 energy=-0.05113185659069365 pbc="F F F"
Mg       0.00000000       0.00000000       0.00000000       0.00000000       0.00000000       0.05611017
Mg       0.00000000       0.00000000       5.58848485       0.00000000       0.00000000      -0.05611017
2
Properties=species:S:1:pos:R:3:forces:R:3 energy=-0.04805221594477267 pbc="F F F"
Mg       0.00000000       0.00000000       0.00000000       0.00000000       0.00000000       0.04973322
Mg       0.00000000       0.00000000       5.64727273       0.00000000       0.00000000      -0.04973322
2
Properties=species:S:1:pos:R:3:forces:R:3 energy=-0.0450390117687442 pbc="F F F"
Mg       0.00000000       0.00000000       0.00000000       0.00000000       0.00000000       0.05521163
Mg       0.00000000       0.00000000       5.70606061       0.00000000       0.00000000      -0.05521163
2
Properties=species:S:1:pos:R:3:forces:R:3 energy=-0.04141035630958014 pbc="F F F"
Mg       0.00000000       0.00000000       0.00000000       0.00000000       0.00000000       0.06727755
Mg       0.00000000       0.00000000       5.76484848       0.00000000       0.00000000      -0.06727755
2
Properties=species:S:1:pos:R:3:forces:R:3 energy=-0.037450105995986235 pbc="F F F"
Mg       0.00000000       0.00000000       0.00000000       0.00000000       0.00000000       0.06388375
Mg       0.00000000       0.00000000       5.82363636       0.00000000       0.00000000      -0.06388375
2
Properties=species:S:1:pos:R:3:forces:R:3 energy=-0.03427439971912963 pbc="F F F"
Mg       0.00000000       0.00000000       0.00000000       0.00000000       0.00000000       0.04261298
Mg       0.00000000       0.00000000       5.88242424       0.00000000       0.00000000      -0.04261298
2
Properties=species:S:1:pos:R:3:forces:R:3 energy=-0.03244679854302573 pbc="F F F"
Mg       0.00000000       0.00000000       0.00000000       0.00000000       0.00000000       0.02066474
Mg       0.00000000       0.00000000       5.94121212       0.00000000       0.00000000      -0.02066474
2
Properties=species:S:1:pos:R:3:forces:R:3 energy=-0.03158409072255088 pbc="F F F"
Mg       0.00000000       0.00000000       0.00000000       0.00000000       0.00000000       0.01149992
Mg       0.00000000       0.00000000       6.00000000       0.00000000       0.00000000      -0.01149992
