2
Properties=species:S:1:pos:R:3:forces:R:3 energy=3280.2972140380225 pbc="F F F"
Mn       0.00000000       0.00000000       0.00000000       0.00000000       0.00000000  -49482.10546875
Mn       0.00000000       0.00000000       0.18000000       0.00000000       0.00000000   49482.10546875
2
Properties=species:S:1:pos:R:3:forces:R:3 energy=1474.1780734130225 pbc="F F F"
Mn       0.00000000       0.00000000       0.00000000       0.00000000       0.00000000  -18153.52148438
Mn       0.00000000       0.00000000       0.23878788       0.00000000       0.00000000   18153.52148438
2
Properties=species:S:1:pos:R:3:forces:R:3 energy=759.0088229247413 pbc="F F F"
Mn       0.00000000       0.00000000       0.00000000       0.00000000       0.00000000   -7868.99609375
Mn       0.00000000       0.00000000       0.29757576       0.00000000       0.00000000    7868.99609375
2
Properties=species:S:1:pos:R:3:forces:R:3 energy=431.5631747345497 pbc="F F F"
Mn       0.00000000       0.00000000       0.00000000       0.00000000       0.00000000   -3847.89331055
Mn       0.00000000       0.00000000       0.35636364       0.00000000       0.00000000    3847.89331055
2
Properties=species:S:1:pos:R:3:forces:R:3 energy=263.3443942201394 pbc="F F F"
Mn       0.00000000       0.00000000       0.00000000       0.00000000       0.00000000   -2105.79980469
Mn       0.00000000       0.00000000       0.41515152       0.00000000       0.00000000    2105.79980469
2
Properties=species:S:1:pos:R:3:forces:R:3 energy=165.97014191347475 pbc="F F F"
Mn       0.00000000       0.00000000       0.00000000       0.00000000       0.00000000   -1300.34179688
Mn       0.00000000       0.00000000       0.47393939       0.00000000       0.00000000    1300.34179688
2
Properties=species:S:1:pos:R:3:forces:R:3 energy=105.8185382337512 pbc="F F F"
Mn       0.00000000       0.00000000       0.00000000       0.00000000       0.00000000    -740.30291748
Mn       0.00000000       0.00000000       0.53272727       0.00000000       0.00000000     740.30291748
2
Properties=species:S:1:pos:R:3:forces:R:3 energy=76.80783423123772 pbc="F F F"
Mn       0.00000000       0.00000000       0.00000000       0.00000000       0.00000000    -310.58523560
Mn       0.00000000       0.00000000       0.59151515       0.00000000       0.00000000     310.58523560
2
Properties=species:S:1:pos:R:3:forces:R:3 energy=63.95947613079383 pbc="F F F"
Mn       0.00000000       0.00000000       0.00000000       0.00000000       0.00000000    -144.30503845
Mn       0.00000000       0.00000000       0.65030303       0.00000000       0.00000000     144.30503845
2
Properties=species:S:1:pos:R:3:forces:R:3 energy=58.18298695851253 pbc="F F F"
Mn       0.00000000       0.00000000       0.00000000       0.00000000       0.00000000     -64.38407135
Mn       0.00000000       0.00000000       0.70909091       0.00000000       0.00000000      64.38407135
2
Properties=species:S:1:pos:R:3:forces:R:3 energy=54.4828451879906 pbc="F F F"
Mn       0.00000000       0.00000000       0.00000000       0.00000000       0.00000000    -103.33859253
Mn       0.00000000       0.00000000       0.76787879       0.00000000       0.00000000     103.33859253
2
Properties=species:S:1:pos:R:3:forces:R:3 energy=48.1752053118798 pbc="F F F"
Mn       0.00000000       0.00000000       0.00000000       0.00000000       0.00000000    -119.49633789
Mn       0.00000000       0.00000000       0.82666667       0.00000000       0.00000000     119.49633789
2
Properties=species:S:1:pos:R:3:forces:R:3 energy=40.99557912897222 pbc="F F F"
Mn       0.00000000       0.00000000       0.00000000       0.00000000       0.00000000    -139.02308655
Mn       0.00000000       0.00000000       0.88545455       0.00000000       0.00000000     139.02308655
2
Properties=species:S:1:pos:R:3:forces:R:3 energy=30.92225532779442 pbc="F F F"
Mn       0.00000000       0.00000000       0.00000000       0.00000000       0.00000000    -201.78794861
Mn       0.00000000       0.00000000       0.94424242       0.00000000       0.00000000     201.78794861
2
Properties=species:S:1:pos:R:3:forces:R:3 energy=18.141496061258465 pbc="F F F"
Mn       0.00000000       0.00000000       0.00000000       0.00000000       0.00000000    -217.17260742
Mn       0.00000000       0.00000000       1.00303030       0.00000000       0.00000000     217.17260742
2
Properties=species:S:1:pos:R:3:forces:R:3 energy=7.29430403824662 pbc="F F F"
Mn       0.00000000       0.00000000       0.00000000       0.00000000       0.00000000    -145.47650146
Mn       0.00000000       0.00000000       1.06181818       0.00000000       0.00000000     145.47650146
2
Properties=species:S:1:pos:R:3:forces:R:3 energy=0.7731220063554702 pbc="F F F"
Mn       0.00000000       0.00000000       0.00000000       0.00000000       0.00000000     -81.92325592
Mn       0.00000000       0.00000000       1.12060606       0.00000000       0.00000000      81.92325592
2
Properties=species:S:1:pos:R:3:forces:R:3 energy=-2.7921557112989235 pbc="F F F"
Mn       0.00000000       0.00000000       0.00000000       0.00000000       0.00000000     -42.18901443
Mn       0.00000000       0.00000000       1.17939394       0.00000000       0.00000000      42.18901443
2
Properties=species:S:1:pos:R:3:forces:R:3 energy=-4.570704196202549 pbc="F F F"
Mn       0.00000000       0.00000000       0.00000000       0.00000000       0.00000000     -21.80462265
Mn       0.00000000       0.00000000       1.23818182       0.00000000       0.00000000      21.80462265
2
Properties=species:S:1:pos:R:3:forces:R:3 energy=-5.643121233991008 pbc="F F F"
Mn       0.00000000       0.00000000       0.00000000       0.00000000       0.00000000     -15.86372471
Mn       0.00000000       0.00000000       1.29696970       0.00000000       0.00000000      15.86372471
2
Properties=species:S:1:pos:R:3:forces:R:3 energy=-6.494397800070209 pbc="F F F"
Mn       0.00000000       0.00000000       0.00000000       0.00000000       0.00000000     -13.24916840
Mn       0.00000000       0.00000000       1.35575758       0.00000000       0.00000000      13.24916840
2
Properties=species:S:1:pos:R:3:forces:R:3 energy=-7.202797066342258 pbc="F F F"
Mn       0.00000000       0.00000000       0.00000000       0.00000000       0.00000000     -10.80633354
Mn       0.00000000       0.00000000       1.41454545       0.00000000       0.00000000      10.80633354
2
Properties=species:S:1:pos:R:3:forces:R:3 energy=-7.762703662215802 pbc="F F F"
Mn       0.00000000       0.00000000       0.00000000       0.00000000       0.00000000      -8.27192879
Mn       0.00000000       0.00000000       1.47333333       0.00000000       0.00000000       8.27192879
2
Properties=species:S:1:pos:R:3:forces:R:3 energy=-8.183622717050465 pbc="F F F"
Mn       0.00000000       0.00000000       0.00000000       0.00000000       0.00000000      -6.13333941
Mn       0.00000000       0.00000000       1.53212121       0.00000000       0.00000000       6.13333941
2
Properties=species:S:1:pos:R:3:forces:R:3 energy=-8.490514628352306 pbc="F F F"
Mn       0.00000000       0.00000000       0.00000000       0.00000000       0.00000000      -4.32098484
Mn       0.00000000       0.00000000       1.59090909       0.00000000       0.00000000       4.32098484
2
Properties=species:S:1:pos:R:3:forces:R:3 energy=-8.691010574456147 pbc="F F F"
Mn       0.00000000       0.00000000       0.00000000       0.00000000       0.00000000      -2.51152158
Mn       0.00000000       0.00000000       1.64969697       0.00000000       0.00000000       2.51152158
2
Properties=species:S:1:pos:R:3:forces:R:3 energy=-8.79432880615041 pbc="F F F"
Mn       0.00000000       0.00000000       0.00000000       0.00000000       0.00000000      -1.14624810
Mn       0.00000000       0.00000000       1.70848485       0.00000000       0.00000000       1.14624810
2
Properties=species:S:1:pos:R:3:forces:R:3 energy=-8.848982948154767 pbc="F F F"
Mn       0.00000000       0.00000000       0.00000000       0.00000000       0.00000000      -0.94095492
Mn       0.00000000       0.00000000       1.76727273       0.00000000       0.00000000       0.94095492
2
Properties=species:S:1:pos:R:3:forces:R:3 energy=-8.93045038816294 pbc="F F F"
Mn       0.00000000       0.00000000       0.00000000       0.00000000       0.00000000      -2.01063418
Mn       0.00000000       0.00000000       1.82606061       0.00000000       0.00000000       2.01063418
2
Properties=species:S:1:pos:R:3:forces:R:3 energy=-9.098813238345283 pbc="F F F"
Mn       0.00000000       0.00000000       0.00000000       0.00000000       0.00000000      -3.75519967
Mn       0.00000000       0.00000000       1.88484848       0.00000000       0.00000000       3.75519967
2
Properties=species:S:1:pos:R:3:forces:R:3 energy=-9.367594881965054 pbc="F F F"
Mn       0.00000000       0.00000000       0.00000000       0.00000000       0.00000000      -5.28759003
Mn       0.00000000       0.00000000       1.94363636       0.00000000       0.00000000       5.28759003
2
Properties=species:S:1:pos:R:3:forces:R:3 energy=-9.704257879910763 pbc="F F F"
Mn       0.00000000       0.00000000       0.00000000       0.00000000       0.00000000      -6.01120663
Mn       0.00000000       0.00000000       2.00242424       0.00000000       0.00000000       6.01120663
2
Properties=species:S:1:pos:R:3:forces:R:3 energy=-10.057232858964406 pbc="F F F"
Mn       0.00000000       0.00000000       0.00000000       0.00000000       0.00000000      -5.87130737
Mn       0.00000000       0.00000000       2.06121212       0.00000000       0.00000000       5.87130737
2
Properties=species:S:1:pos:R:3:forces:R:3 energy=-10.38283575032276 pbc="F F F"
Mn       0.00000000       0.00000000       0.00000000       0.00000000       0.00000000      -5.13163519
Mn       0.00000000       0.00000000       2.12000000       0.00000000       0.00000000       5.13163519
2
Properties=species:S:1:pos:R:3:forces:R:3 energy=-10.654470736447989 pbc="F F F"
Mn       0.00000000       0.00000000       0.00000000       0.00000000       0.00000000      -4.07807636
Mn       0.00000000       0.00000000       2.17878788       0.00000000       0.00000000       4.07807636
2
Properties=species:S:1:pos:R:3:forces:R:3 energy=-10.860961123170298 pbc="F F F"
Mn       0.00000000       0.00000000       0.00000000       0.00000000       0.00000000      -2.95471954
Mn       0.00000000       0.00000000       2.23757576       0.00000000       0.00000000       2.95471954
2
Properties=species:S:1:pos:R:3:forces:R:3 energy=-11.004785321421325 pbc="F F F"
Mn       0.00000000       0.00000000       0.00000000       0.00000000       0.00000000      -1.97677553
Mn       0.00000000       0.00000000       2.29636364       0.00000000       0.00000000       1.97677553
2
Properties=species:S:1:pos:R:3:forces:R:3 energy=-11.09874348681445 pbc="F F F"
Mn       0.00000000       0.00000000       0.00000000       0.00000000       0.00000000      -1.26769066
Mn       0.00000000       0.00000000       2.35515152       0.00000000       0.00000000       1.26769066
2
Properties=species:S:1:pos:R:3:forces:R:3 energy=-11.159036132117683 pbc="F F F"
Mn       0.00000000       0.00000000       0.00000000       0.00000000       0.00000000      -0.82135773
Mn       0.00000000       0.00000000       2.41393939       0.00000000       0.00000000       0.82135773
2
Properties=species:S:1:pos:R:3:forces:R:3 energy=-11.198854802369281 pbc="F F F"
Mn       0.00000000       0.00000000       0.00000000       0.00000000       0.00000000      -0.55621934
Mn       0.00000000       0.00000000       2.47272727       0.00000000       0.00000000       0.55621934
2
Properties=species:S:1:pos:R:3:forces:R:3 energy=-11.226545384095514 pbc="F F F"
Mn       0.00000000       0.00000000       0.00000000       0.00000000       0.00000000      -0.40045840
Mn       0.00000000       0.00000000       2.53151515       0.00000000       0.00000000       0.40045840
2
Properties=species:S:1:pos:R:3:forces:R:3 energy=-11.247395523829134 pbc="F F F"
Mn       0.00000000       0.00000000       0.00000000       0.00000000       0.00000000      -0.31814843
Mn       0.00000000       0.00000000       2.59030303       0.00000000       0.00000000       0.31814843
2
Properties=species:S:1:pos:R:3:forces:R:3 energy=-11.264245153287714 pbc="F F F"
Mn       0.00000000       0.00000000       0.00000000       0.00000000       0.00000000      -0.24853134
Mn       0.00000000       0.00000000       2.64909091       0.00000000       0.00000000       0.24853134
2
Properties=species:S:1:pos:R:3:forces:R:3 energy=-11.275087481202618 pbc="F F F"
Mn       0.00000000       0.00000000       0.00000000       0.00000000       0.00000000      -0.10722008
Mn       0.00000000       0.00000000       2.70787879       0.00000000       0.00000000       0.10722008
2
Properties=species:S:1:pos:R:3:forces:R:3 energy=-11.276301744645464 pbc="F F F"
Mn       0.00000000       0.00000000       0.00000000       0.00000000       0.00000000       0.06131634
Mn       0.00000000       0.00000000       2.76666667       0.00000000       0.00000000      -0.06131634
2
Properties=species:S:1:pos:R:3:forces:R:3 energy=-11.268943174766077 pbc="F F F"
Mn       0.00000000       0.00000000       0.00000000       0.00000000       0.00000000       0.17917499
Mn       0.00000000       0.00000000       2.82545455       0.00000000       0.00000000      -0.17917499
2
Properties=species:S:1:pos:R:3:forces:R:3 energy=-11.256154895805308 pbc="F F F"
Mn       0.00000000       0.00000000       0.00000000       0.00000000       0.00000000       0.25050354
Mn       0.00000000       0.00000000       2.88424242       0.00000000       0.00000000      -0.25050354
2
Properties=species:S:1:pos:R:3:forces:R:3 energy=-11.239873332183988 pbc="F F F"
Mn       0.00000000       0.00000000       0.00000000       0.00000000       0.00000000       0.30193055
Mn       0.00000000       0.00000000       2.94303030       0.00000000       0.00000000      -0.30193055
2
Properties=species:S:1:pos:R:3:forces:R:3 energy=-11.220667219533999 pbc="F F F"
Mn       0.00000000       0.00000000       0.00000000       0.00000000       0.00000000       0.35249034
Mn       0.00000000       0.00000000       3.00181818       0.00000000       0.00000000      -0.35249034
2
Properties=species:S:1:pos:R:3:forces:R:3 energy=-11.198238187354084 pbc="F F F"
Mn       0.00000000       0.00000000       0.00000000       0.00000000       0.00000000       0.41240522
Mn       0.00000000       0.00000000       3.06060606       0.00000000       0.00000000      -0.41240522
2
Properties=species:S:1:pos:R:3:forces:R:3 energy=-11.17200317497105 pbc="F F F"
Mn       0.00000000       0.00000000       0.00000000       0.00000000       0.00000000       0.48087898
Mn       0.00000000       0.00000000       3.11939394       0.00000000       0.00000000      -0.48087898
2
Properties=species:S:1:pos:R:3:forces:R:3 energy=-11.141751087710464 pbc="F F F"
Mn       0.00000000       0.00000000       0.00000000       0.00000000       0.00000000       0.54656726
Mn       0.00000000       0.00000000       3.17818182       0.00000000       0.00000000      -0.54656726
2
Properties=species:S:1:pos:R:3:forces:R:3 energy=-11.108082052175014 pbc="F F F"
Mn       0.00000000       0.00000000       0.00000000       0.00000000       0.00000000       0.59505016
Mn       0.00000000       0.00000000       3.23696970       0.00000000       0.00000000      -0.59505016
2
Properties=species:S:1:pos:R:3:forces:R:3 energy=-11.072288579159446 pbc="F F F"
Mn       0.00000000       0.00000000       0.00000000       0.00000000       0.00000000       0.61835498
Mn       0.00000000       0.00000000       3.29575758       0.00000000       0.00000000      -0.61835498
2
Properties=species:S:1:pos:R:3:forces:R:3 energy=-11.035827604570583 pbc="F F F"
Mn       0.00000000       0.00000000       0.00000000       0.00000000       0.00000000       0.61896628
Mn       0.00000000       0.00000000       3.35454545       0.00000000       0.00000000      -0.61896628
2
Properties=species:S:1:pos:R:3:forces:R:3 energy=-10.999770336396313 pbc="F F F"
Mn       0.00000000       0.00000000       0.00000000       0.00000000       0.00000000       0.60644561
Mn       0.00000000       0.00000000       3.41333333       0.00000000       0.00000000      -0.60644561
2
Properties=species:S:1:pos:R:3:forces:R:3 energy=-10.964583498827746 pbc="F F F"
Mn       0.00000000       0.00000000       0.00000000       0.00000000       0.00000000       0.59073162
Mn       0.00000000       0.00000000       3.47212121       0.00000000       0.00000000      -0.59073162
2
Properties=species:S:1:pos:R:3:forces:R:3 energy=-10.930267849453925 pbc="F F F"
Mn       0.00000000       0.00000000       0.00000000       0.00000000       0.00000000       0.57723564
Mn       0.00000000       0.00000000       3.53090909       0.00000000       0.00000000      -0.57723564
2
Properties=species:S:1:pos:R:3:forces:R:3 energy=-10.896671180842581 pbc="F F F"
Mn       0.00000000       0.00000000       0.00000000       0.00000000       0.00000000       0.56585288
Mn       0.00000000       0.00000000       3.58969697       0.00000000       0.00000000      -0.56585288
2
Properties=species:S:1:pos:R:3:forces:R:3 energy=-10.863764917770116 pbc="F F F"
Mn       0.00000000       0.00000000       0.00000000       0.00000000       0.00000000       0.55304110
Mn       0.00000000       0.00000000       3.64848485       0.00000000       0.00000000      -0.55304110
2
Properties=species:S:1:pos:R:3:forces:R:3 energy=-10.831754965189852 pbc="F F F"
Mn       0.00000000       0.00000000       0.00000000       0.00000000       0.00000000       0.53477901
Mn       0.00000000       0.00000000       3.70727273       0.00000000       0.00000000      -0.53477901
2
Properties=species:S:1:pos:R:3:forces:R:3 energy=-10.801040807942385 pbc="F F F"
Mn       0.00000000       0.00000000       0.00000000       0.00000000       0.00000000       0.50877750
Mn       0.00000000       0.00000000       3.76606061       0.00000000       0.00000000      -0.50877750
2
Properties=species:S:1:pos:R:3:forces:R:3 energy=-10.772083827672182 pbc="F F F"
Mn       0.00000000       0.00000000       0.00000000       0.00000000       0.00000000       0.47526625
Mn       0.00000000       0.00000000       3.82484848       0.00000000       0.00000000      -0.47526625
2
Properties=species:S:1:pos:R:3:forces:R:3 energy=-10.745262559743397 pbc="F F F"
Mn       0.00000000       0.00000000       0.00000000       0.00000000       0.00000000       0.43661845
Mn       0.00000000       0.00000000       3.88363636       0.00000000       0.00000000      -0.43661845
2
Properties=species:S:1:pos:R:3:forces:R:3 energy=-10.720778266811257 pbc="F F F"
Mn       0.00000000       0.00000000       0.00000000       0.00000000       0.00000000       0.39639181
Mn       0.00000000       0.00000000       3.94242424       0.00000000       0.00000000      -0.39639181
2
Properties=species:S:1:pos:R:3:forces:R:3 energy=-10.698614833815622 pbc="F F F"
Mn       0.00000000       0.00000000       0.00000000       0.00000000       0.00000000       0.35828635
Mn       0.00000000       0.00000000       4.00121212       0.00000000       0.00000000      -0.35828635
2
Properties=species:S:1:pos:R:3:forces:R:3 energy=-10.678551203760959 pbc="F F F"
Mn       0.00000000       0.00000000       0.00000000       0.00000000       0.00000000       0.32531771
Mn       0.00000000       0.00000000       4.06000000       0.00000000       0.00000000      -0.32531771
2
Properties=species:S:1:pos:R:3:forces:R:3 energy=-10.66022714323031 pbc="F F F"
Mn       0.00000000       0.00000000       0.00000000       0.00000000       0.00000000       0.29932433
Mn       0.00000000       0.00000000       4.11878788       0.00000000       0.00000000      -0.29932433
2
Properties=species:S:1:pos:R:3:forces:R:3 energy=-10.643210807541942 pbc="F F F"
Mn       0.00000000       0.00000000       0.00000000       0.00000000       0.00000000       0.28081557
Mn       0.00000000       0.00000000       4.17757576       0.00000000       0.00000000      -0.28081557
2
Properties=species:S:1:pos:R:3:forces:R:3 energy=-10.62707588699866 pbc="F F F"
Mn       0.00000000       0.00000000       0.00000000       0.00000000       0.00000000       0.26915807
Mn       0.00000000       0.00000000       4.23636364       0.00000000       0.00000000      -0.26915807
2
Properties=species:S:1:pos:R:3:forces:R:3 energy=-10.611456786949638 pbc="F F F"
Mn       0.00000000       0.00000000       0.00000000       0.00000000       0.00000000       0.26297992
Mn       0.00000000       0.00000000       4.29515152       0.00000000       0.00000000      -0.26297992
2
Properties=species:S:1:pos:R:3:forces:R:3 energy=-10.596080048357692 pbc="F F F"
Mn       0.00000000       0.00000000       0.00000000       0.00000000       0.00000000       0.26067242
Mn       0.00000000       0.00000000       4.35393939       0.00000000       0.00000000      -0.26067242
2
Properties=species:S:1:pos:R:3:forces:R:3 energy=-10.580760108613859 pbc="F F F"
Mn       0.00000000       0.00000000       0.00000000       0.00000000       0.00000000       0.26079690
Mn       0.00000000       0.00000000       4.41272727       0.00000000       0.00000000      -0.26079690
2
Properties=species:S:1:pos:R:3:forces:R:3 energy=-10.565389726780365 pbc="F F F"
Mn       0.00000000       0.00000000       0.00000000       0.00000000       0.00000000       0.26230758
Mn       0.00000000       0.00000000       4.47151515       0.00000000       0.00000000      -0.26230758
2
Properties=species:S:1:pos:R:3:forces:R:3 energy=-10.549904564592383 pbc="F F F"
Mn       0.00000000       0.00000000       0.00000000       0.00000000       0.00000000       0.26455110
Mn       0.00000000       0.00000000       4.53030303       0.00000000       0.00000000      -0.26455110
2
Properties=species:S:1:pos:R:3:forces:R:3 energy=-10.534278094968593 pbc="F F F"
Mn       0.00000000       0.00000000       0.00000000       0.00000000       0.00000000       0.26711354
Mn       0.00000000       0.00000000       4.58909091       0.00000000       0.00000000      -0.26711354
2
Properties=species:S:1:pos:R:3:forces:R:3 energy=-10.51850051980592 pbc="F F F"
Mn       0.00000000       0.00000000       0.00000000       0.00000000       0.00000000       0.26961848
Mn       0.00000000       0.00000000       4.64787879       0.00000000       0.00000000      -0.26961848
2
Properties=species:S:1:pos:R:3:forces:R:3 energy=-10.502588218023666 pbc="F F F"
Mn       0.00000000       0.00000000       0.00000000       0.00000000       0.00000000       0.27156943
Mn       0.00000000       0.00000000       4.70666667       0.00000000       0.00000000      -0.27156943
2
Properties=species:S:1:pos:R:3:forces:R:3 energy=-10.486593976219583 pbc="F F F"
Mn       0.00000000       0.00000000       0.00000000       0.00000000       0.00000000       0.27230290
Mn       0.00000000       0.00000000       4.76545455       0.00000000       0.00000000      -0.27230290
2
Properties=species:S:1:pos:R:3:forces:R:3 energy=-10.47061086038793 pbc="F F F"
Mn       0.00000000       0.00000000       0.00000000       0.00000000       0.00000000       0.27104086
Mn       0.00000000       0.00000000       4.82424242       0.00000000       0.00000000      -0.27104086
2
Properties=species:S:1:pos:R:3:forces:R:3 energy=-10.454780640597226 pbc="F F F"
Mn       0.00000000       0.00000000       0.00000000       0.00000000       0.00000000       0.26702544
Mn       0.00000000       0.00000000       4.88303030       0.00000000       0.00000000      -0.26702544
2
Properties=species:S:1:pos:R:3:forces:R:3 energy=-10.439280395200294 pbc="F F F"
Mn       0.00000000       0.00000000       0.00000000       0.00000000       0.00000000       0.25969139
Mn       0.00000000       0.00000000       4.94181818       0.00000000       0.00000000      -0.25969139
2
Properties=species:S:1:pos:R:3:forces:R:3 energy=-10.424316804627484 pbc="F F F"
Mn       0.00000000       0.00000000       0.00000000       0.00000000       0.00000000       0.24878712
Mn       0.00000000       0.00000000       5.00060606       0.00000000       0.00000000      -0.24878712
2
Properties=species:S:1:pos:R:3:forces:R:3 energy=-10.410094778336719 pbc="F F F"
Mn       0.00000000       0.00000000       0.00000000       0.00000000       0.00000000       0.23450127
Mn       0.00000000       0.00000000       5.05939394       0.00000000       0.00000000      -0.23450127
2
Properties=species:S:1:pos:R:3:forces:R:3 energy=-10.396799201952943 pbc="F F F"
Mn       0.00000000       0.00000000       0.00000000       0.00000000       0.00000000       0.21746759
Mn       0.00000000       0.00000000       5.11818182       0.00000000       0.00000000      -0.21746759
2
Properties=species:S:1:pos:R:3:forces:R:3 energy=-10.384560757048204 pbc="F F F"
Mn       0.00000000       0.00000000       0.00000000       0.00000000       0.00000000       0.19869268
Mn       0.00000000       0.00000000       5.17696970       0.00000000       0.00000000      -0.19869268
2
Properties=species:S:1:pos:R:3:forces:R:3 energy=-10.373451222462155 pbc="F F F"
Mn       0.00000000       0.00000000       0.00000000       0.00000000       0.00000000       0.17927215
Mn       0.00000000       0.00000000       5.23575758       0.00000000       0.00000000      -0.17927215
2
Properties=species:S:1:pos:R:3:forces:R:3 energy=-10.363480629118216 pbc="F F F"
Mn       0.00000000       0.00000000       0.00000000       0.00000000       0.00000000       0.15996659
Mn       0.00000000       0.00000000       5.29454545       0.00000000       0.00000000      -0.15996659
2
Properties=species:S:1:pos:R:3:forces:R:3 energy=-10.354634595873907 pbc="F F F"
Mn       0.00000000       0.00000000       0.00000000       0.00000000       0.00000000       0.14108607
Mn       0.00000000       0.00000000       5.35333333       0.00000000       0.00000000      -0.14108607
2
Properties=species:S:1:pos:R:3:forces:R:3 energy=-10.34686670804588 pbc="F F F"
Mn       0.00000000       0.00000000       0.00000000       0.00000000       0.00000000       0.12354881
Mn       0.00000000       0.00000000       5.41212121       0.00000000       0.00000000      -0.12354881
2
Properties=species:S:1:pos:R:3:forces:R:3 energy=-10.34003569369836 pbc="F F F"
Mn       0.00000000       0.00000000       0.00000000       0.00000000       0.00000000       0.10959829
Mn       0.00000000       0.00000000       5.47090909       0.00000000       0.00000000      -0.10959829
2
Properties=species:S:1:pos:R:3:forces:R:3 energy=-10.333903581234866 pbc="F F F"
Mn       0.00000000       0.00000000       0.00000000       0.00000000       0.00000000       0.09941587
Mn       0.00000000       0.00000000       5.52969697       0.00000000       0.00000000      -0.09941587
2
Properties=species:S:1:pos:R:3:forces:R:3 energy=-10.328342681570918 pbc="F F F"
Mn       0.00000000       0.00000000       0.00000000       0.00000000       0.00000000       0.08960932
Mn       0.00000000       0.00000000       5.58848485       0.00000000       0.00000000      -0.08960932
2
Properties=species:S:1:pos:R:3:forces:R:3 energy=-10.323378652365921 pbc="F F F"
Mn       0.00000000       0.00000000       0.00000000       0.00000000       0.00000000       0.07938515
Mn       0.00000000       0.00000000       5.64727273       0.00000000       0.00000000      -0.07938515
2
Properties=species:S:1:pos:R:3:forces:R:3 energy=-10.318960622915121 pbc="F F F"
Mn       0.00000000       0.00000000       0.00000000       0.00000000       0.00000000       0.07156902
Mn       0.00000000       0.00000000       5.70606061       0.00000000       0.00000000      -0.07156902
2
Properties=species:S:1:pos:R:3:forces:R:3 energy=-10.31491645382012 pbc="F F F"
Mn       0.00000000       0.00000000       0.00000000       0.00000000       0.00000000       0.06564602
Mn       0.00000000       0.00000000       5.76484848       0.00000000       0.00000000      -0.06564602
2
Properties=species:S:1:pos:R:3:forces:R:3 energy=-10.311339097048172 pbc="F F F"
Mn       0.00000000       0.00000000       0.00000000       0.00000000       0.00000000       0.05486738
Mn       0.00000000       0.00000000       5.82363636       0.00000000       0.00000000      -0.05486738
2
Properties=species:S:1:pos:R:3:forces:R:3 energy=-10.308617016891729 pbc="F F F"
Mn       0.00000000       0.00000000       0.00000000       0.00000000       0.00000000       0.03722338
Mn       0.00000000       0.00000000       5.88242424       0.00000000       0.00000000      -0.03722338
2
Properties=species:S:1:pos:R:3:forces:R:3 energy=-10.306941276563215 pbc="F F F"
Mn       0.00000000       0.00000000       0.00000000       0.00000000       0.00000000       0.02069070
Mn       0.00000000       0.00000000       5.94121212       0.00000000       0.00000000      -0.02069070
2
Properties=species:S:1:pos:R:3:forces:R:3 energy=-10.305990817751052 pbc="F F F"
Mn       0.00000000       0.00000000       0.00000000       0.00000000       0.00000000       0.01369574
Mn       0.00000000       0.00000000       6.00000000       0.00000000       0.00000000      -0.01369574
