2
Properties=species:S:1:pos:R:3:forces:R:3 energy=3280.2979464598975 pbc="F F F"
Mn       0.00000000       0.00000000       0.00000000       0.00000000       0.00000000  -49482.10156250
Mn       0.00000000       0.00000000       0.18000000       0.00000000       0.00000000   49482.10156250
2
Properties=species:S:1:pos:R:3:forces:R:3 energy=1474.177707202085 pbc="F F F"
Mn       0.00000000       0.00000000       0.00000000       0.00000000       0.00000000  -18153.52343750
Mn       0.00000000       0.00000000       0.23878788       0.00000000       0.00000000   18153.52343750
2
Properties=species:S:1:pos:R:3:forces:R:3 energy=759.0091281005225 pbc="F F F"
Mn       0.00000000       0.00000000       0.00000000       0.00000000       0.00000000   -7868.99609375
Mn       0.00000000       0.00000000       0.29757576       0.00000000       0.00000000    7868.99609375
2
Properties=species:S:1:pos:R:3:forces:R:3 energy=431.5636630157997 pbc="F F F"
Mn       0.00000000       0.00000000       0.00000000       0.00000000       0.00000000   -3847.89306641
Mn       0.00000000       0.00000000       0.35636364       0.00000000       0.00000000    3847.89306641
2
Properties=species:S:1:pos:R:3:forces:R:3 energy=263.34445525529566 pbc="F F F"
Mn       0.00000000       0.00000000       0.00000000       0.00000000       0.00000000   -2105.79980469
Mn       0.00000000       0.00000000       0.41515152       0.00000000       0.00000000    2105.79980469
2
Properties=species:S:1:pos:R:3:forces:R:3 energy=165.97000458437319 pbc="F F F"
Mn       0.00000000       0.00000000       0.00000000       0.00000000       0.00000000   -1300.34082031
Mn       0.00000000       0.00000000       0.47393939       0.00000000       0.00000000    1300.34082031
2
Properties=species:S:1:pos:R:3:forces:R:3 energy=105.81847719859495 pbc="F F F"
Mn       0.00000000       0.00000000       0.00000000       0.00000000       0.00000000    -740.30401611
Mn       0.00000000       0.00000000       0.53272727       0.00000000       0.00000000     740.30401611
2
Properties=species:S:1:pos:R:3:forces:R:3 energy=76.80754431424553 pbc="F F F"
Mn       0.00000000       0.00000000       0.00000000       0.00000000       0.00000000    -310.58486938
Mn       0.00000000       0.00000000       0.59151515       0.00000000       0.00000000     310.58486938
2
Properties=species:S:1:pos:R:3:forces:R:3 energy=63.95921673137977 pbc="F F F"
Mn       0.00000000       0.00000000       0.00000000       0.00000000       0.00000000    -144.30305481
Mn       0.00000000       0.00000000       0.65030303       0.00000000       0.00000000     144.30305481
2
Properties=species:S:1:pos:R:3:forces:R:3 energy=58.18291829396175 pbc="F F F"
Mn       0.00000000       0.00000000       0.00000000       0.00000000       0.00000000     -64.38386536
Mn       0.00000000       0.00000000       0.70909091       0.00000000       0.00000000      64.38386536
2
Properties=species:S:1:pos:R:3:forces:R:3 energy=54.48292148193591 pbc="F F F"
Mn       0.00000000       0.00000000       0.00000000       0.00000000       0.00000000    -103.33836365
Mn       0.00000000       0.00000000       0.76787879       0.00000000       0.00000000     103.33836365
2
Properties=species:S:1:pos:R:3:forces:R:3 energy=48.17512901793449 pbc="F F F"
Mn       0.00000000       0.00000000       0.00000000       0.00000000       0.00000000    -119.49633789
Mn       0.00000000       0.00000000       0.82666667       0.00000000       0.00000000     119.49633789
2
Properties=species:S:1:pos:R:3:forces:R:3 energy=40.995510464421436 pbc="F F F"
Mn       0.00000000       0.00000000       0.00000000       0.00000000       0.00000000    -139.02255249
Mn       0.00000000       0.00000000       0.88545455       0.00000000       0.00000000     139.02255249
2
Properties=species:S:1:pos:R:3:forces:R:3 energy=30.92222862491356 pbc="F F F"
Mn       0.00000000       0.00000000       0.00000000       0.00000000       0.00000000    -201.78819275
Mn       0.00000000       0.00000000       0.94424242       0.00000000       0.00000000     201.78819275
2
Properties=species:S:1:pos:R:3:forces:R:3 energy=18.141456006937176 pbc="F F F"
Mn       0.00000000       0.00000000       0.00000000       0.00000000       0.00000000    -217.17243958
Mn       0.00000000       0.00000000       1.00303030       0.00000000       0.00000000     217.17243958
2
Properties=species:S:1:pos:R:3:forces:R:3 energy=7.294262076576699 pbc="F F F"
Mn       0.00000000       0.00000000       0.00000000       0.00000000       0.00000000    -145.47630310
Mn       0.00000000       0.00000000       1.06181818       0.00000000       0.00000000     145.47630310
2
Properties=species:S:1:pos:R:3:forces:R:3 energy=0.7731134232866226 pbc="F F F"
Mn       0.00000000       0.00000000       0.00000000       0.00000000       0.00000000     -81.92321014
Mn       0.00000000       0.00000000       1.12060606       0.00000000       0.00000000      81.92321014
2
Properties=species:S:1:pos:R:3:forces:R:3 energy=-2.7921628638562965 pbc="F F F"
Mn       0.00000000       0.00000000       0.00000000       0.00000000       0.00000000     -42.18894196
Mn       0.00000000       0.00000000       1.17939394       0.00000000       0.00000000      42.18894196
2
Properties=species:S:1:pos:R:3:forces:R:3 energy=-4.570708487736973 pbc="F F F"
Mn       0.00000000       0.00000000       0.00000000       0.00000000       0.00000000     -21.80459976
Mn       0.00000000       0.00000000       1.23818182       0.00000000       0.00000000      21.80459976
2
Properties=species:S:1:pos:R:3:forces:R:3 energy=-5.643122664502482 pbc="F F F"
Mn       0.00000000       0.00000000       0.00000000       0.00000000       0.00000000     -15.86371899
Mn       0.00000000       0.00000000       1.29696970       0.00000000       0.00000000      15.86371899
2
Properties=species:S:1:pos:R:3:forces:R:3 energy=-6.494397800070209 pbc="F F F"
Mn       0.00000000       0.00000000       0.00000000       0.00000000       0.00000000     -13.24914074
Mn       0.00000000       0.00000000       1.35575758       0.00000000       0.00000000      13.24914074
2
Properties=species:S:1:pos:R:3:forces:R:3 energy=-7.202800881039524 pbc="F F F"
Mn       0.00000000       0.00000000       0.00000000       0.00000000       0.00000000     -10.80633259
Mn       0.00000000       0.00000000       1.41454545       0.00000000       0.00000000      10.80633259
2
Properties=species:S:1:pos:R:3:forces:R:3 energy=-7.762705092727277 pbc="F F F"
Mn       0.00000000       0.00000000       0.00000000       0.00000000       0.00000000      -8.27191544
Mn       0.00000000       0.00000000       1.47333333       0.00000000       0.00000000       8.27191544
2
Properties=species:S:1:pos:R:3:forces:R:3 energy=-8.183623670724781 pbc="F F F"
Mn       0.00000000       0.00000000       0.00000000       0.00000000       0.00000000      -6.13332653
Mn       0.00000000       0.00000000       1.53212121       0.00000000       0.00000000       6.13332653
2
Properties=species:S:1:pos:R:3:forces:R:3 energy=-8.490514622016663 pbc="F F F"
Mn       0.00000000       0.00000000       0.00000000       0.00000000       0.00000000      -4.32097530
Mn       0.00000000       0.00000000       1.59090909       0.00000000       0.00000000       4.32097530
2
Properties=species:S:1:pos:R:3:forces:R:3 energy=-8.691013435479096 pbc="F F F"
Mn       0.00000000       0.00000000       0.00000000       0.00000000       0.00000000      -2.51151824
Mn       0.00000000       0.00000000       1.64969697       0.00000000       0.00000000       2.51151824
2
Properties=species:S:1:pos:R:3:forces:R:3 energy=-8.794325945127461 pbc="F F F"
Mn       0.00000000       0.00000000       0.00000000       0.00000000       0.00000000      -1.14624560
Mn       0.00000000       0.00000000       1.70848485       0.00000000       0.00000000       1.14624560
2
Properties=species:S:1:pos:R:3:forces:R:3 energy=-8.84898199448045 pbc="F F F"
Mn       0.00000000       0.00000000       0.00000000       0.00000000       0.00000000      -0.94095749
Mn       0.00000000       0.00000000       1.76727273       0.00000000       0.00000000       0.94095749
2
Properties=species:S:1:pos:R:3:forces:R:3 energy=-8.93045038816294 pbc="F F F"
Mn       0.00000000       0.00000000       0.00000000       0.00000000       0.00000000      -2.01062846
Mn       0.00000000       0.00000000       1.82606061       0.00000000       0.00000000       2.01062846
2
Properties=species:S:1:pos:R:3:forces:R:3 energy=-9.098812284670966 pbc="F F F"
Mn       0.00000000       0.00000000       0.00000000       0.00000000       0.00000000      -3.75520253
Mn       0.00000000       0.00000000       1.88484848       0.00000000       0.00000000       3.75520253
2
Properties=species:S:1:pos:R:3:forces:R:3 energy=-9.367593928290738 pbc="F F F"
Mn       0.00000000       0.00000000       0.00000000       0.00000000       0.00000000      -5.28759098
Mn       0.00000000       0.00000000       1.94363636       0.00000000       0.00000000       5.28759098
2
Properties=species:S:1:pos:R:3:forces:R:3 energy=-9.704255978897773 pbc="F F F"
Mn       0.00000000       0.00000000       0.00000000       0.00000000       0.00000000      -6.01119471
Mn       0.00000000       0.00000000       2.00242424       0.00000000       0.00000000       6.01119471
2
Properties=species:S:1:pos:R:3:forces:R:3 energy=-10.057232858964406 pbc="F F F"
Mn       0.00000000       0.00000000       0.00000000       0.00000000       0.00000000      -5.87130785
Mn       0.00000000       0.00000000       2.06121212       0.00000000       0.00000000       5.87130785
2
Properties=species:S:1:pos:R:3:forces:R:3 energy=-10.382834796648444 pbc="F F F"
Mn       0.00000000       0.00000000       0.00000000       0.00000000       0.00000000      -5.13163376
Mn       0.00000000       0.00000000       2.12000000       0.00000000       0.00000000       5.13163376
2
Properties=species:S:1:pos:R:3:forces:R:3 energy=-10.654468829099356 pbc="F F F"
Mn       0.00000000       0.00000000       0.00000000       0.00000000       0.00000000      -4.07807446
Mn       0.00000000       0.00000000       2.17878788       0.00000000       0.00000000       4.07807446
2
Properties=species:S:1:pos:R:3:forces:R:3 energy=-10.860960169495982 pbc="F F F"
Mn       0.00000000       0.00000000       0.00000000       0.00000000       0.00000000      -2.95472336
Mn       0.00000000       0.00000000       2.23757576       0.00000000       0.00000000       2.95472336
2
Properties=species:S:1:pos:R:3:forces:R:3 energy=-11.004784364579187 pbc="F F F"
Mn       0.00000000       0.00000000       0.00000000       0.00000000       0.00000000      -1.97677505
Mn       0.00000000       0.00000000       2.29636364       0.00000000       0.00000000       1.97677505
2
Properties=species:S:1:pos:R:3:forces:R:3 energy=-11.098742545811422 pbc="F F F"
Mn       0.00000000       0.00000000       0.00000000       0.00000000       0.00000000      -1.26769125
Mn       0.00000000       0.00000000       2.35515152       0.00000000       0.00000000       1.26769125
2
Properties=species:S:1:pos:R:3:forces:R:3 energy=-11.159035178443366 pbc="F F F"
Mn       0.00000000       0.00000000       0.00000000       0.00000000       0.00000000      -0.82135755
Mn       0.00000000       0.00000000       2.41393939       0.00000000       0.00000000       0.82135755
2
Properties=species:S:1:pos:R:3:forces:R:3 energy=-11.198853845527141 pbc="F F F"
Mn       0.00000000       0.00000000       0.00000000       0.00000000       0.00000000      -0.55621994
Mn       0.00000000       0.00000000       2.47272727       0.00000000       0.00000000       0.55621994
2
Properties=species:S:1:pos:R:3:forces:R:3 energy=-11.226544455763776 pbc="F F F"
Mn       0.00000000       0.00000000       0.00000000       0.00000000       0.00000000      -0.40045896
Mn       0.00000000       0.00000000       2.53151515       0.00000000       0.00000000       0.40045896
2
Properties=species:S:1:pos:R:3:forces:R:3 energy=-11.247394563819173 pbc="F F F"
Mn       0.00000000       0.00000000       0.00000000       0.00000000       0.00000000      -0.31814823
Mn       0.00000000       0.00000000       2.59030303       0.00000000       0.00000000       0.31814823
2
Properties=species:S:1:pos:R:3:forces:R:3 energy=-11.264244199613398 pbc="F F F"
Mn       0.00000000       0.00000000       0.00000000       0.00000000       0.00000000      -0.24853219
Mn       0.00000000       0.00000000       2.64909091       0.00000000       0.00000000       0.24853219
2
Properties=species:S:1:pos:R:3:forces:R:3 energy=-11.275086578213456 pbc="F F F"
Mn       0.00000000       0.00000000       0.00000000       0.00000000       0.00000000      -0.10722066
Mn       0.00000000       0.00000000       2.70787879       0.00000000       0.00000000       0.10722066
2
Properties=species:S:1:pos:R:3:forces:R:3 energy=-11.276300790971147 pbc="F F F"
Mn       0.00000000       0.00000000       0.00000000       0.00000000       0.00000000       0.06131487
Mn       0.00000000       0.00000000       2.76666667       0.00000000       0.00000000      -0.06131487
2
Properties=species:S:1:pos:R:3:forces:R:3 energy=-11.268942221091761 pbc="F F F"
Mn       0.00000000       0.00000000       0.00000000       0.00000000       0.00000000       0.17917490
Mn       0.00000000       0.00000000       2.82545455       0.00000000       0.00000000      -0.17917490
2
Properties=species:S:1:pos:R:3:forces:R:3 energy=-11.256153942130991 pbc="F F F"
Mn       0.00000000       0.00000000       0.00000000       0.00000000       0.00000000       0.25050208
Mn       0.00000000       0.00000000       2.88424242       0.00000000       0.00000000      -0.25050208
2
Properties=species:S:1:pos:R:3:forces:R:3 energy=-11.239873332183988 pbc="F F F"
Mn       0.00000000       0.00000000       0.00000000       0.00000000       0.00000000       0.30193076
Mn       0.00000000       0.00000000       2.94303030       0.00000000       0.00000000      -0.30193076
2
Properties=species:S:1:pos:R:3:forces:R:3 energy=-11.220666265859682 pbc="F F F"
Mn       0.00000000       0.00000000       0.00000000       0.00000000       0.00000000       0.35249031
Mn       0.00000000       0.00000000       3.00181818       0.00000000       0.00000000      -0.35249031
2
Properties=species:S:1:pos:R:3:forces:R:3 energy=-11.198238187354084 pbc="F F F"
Mn       0.00000000       0.00000000       0.00000000       0.00000000       0.00000000       0.41240442
Mn       0.00000000       0.00000000       3.06060606       0.00000000       0.00000000      -0.41240442
2
Properties=species:S:1:pos:R:3:forces:R:3 energy=-11.172002221296733 pbc="F F F"
Mn       0.00000000       0.00000000       0.00000000       0.00000000       0.00000000       0.48087832
Mn       0.00000000       0.00000000       3.11939394       0.00000000       0.00000000      -0.48087832
2
Properties=species:S:1:pos:R:3:forces:R:3 energy=-11.141750134036148 pbc="F F F"
Mn       0.00000000       0.00000000       0.00000000       0.00000000       0.00000000       0.54656631
Mn       0.00000000       0.00000000       3.17818182       0.00000000       0.00000000      -0.54656631
2
Properties=species:S:1:pos:R:3:forces:R:3 energy=-11.108081098500698 pbc="F F F"
Mn       0.00000000       0.00000000       0.00000000       0.00000000       0.00000000       0.59504968
Mn       0.00000000       0.00000000       3.23696970       0.00000000       0.00000000      -0.59504968
2
Properties=species:S:1:pos:R:3:forces:R:3 energy=-11.072288579159446 pbc="F F F"
Mn       0.00000000       0.00000000       0.00000000       0.00000000       0.00000000       0.61835349
Mn       0.00000000       0.00000000       3.29575758       0.00000000       0.00000000      -0.61835349
2
Properties=species:S:1:pos:R:3:forces:R:3 energy=-11.035827598234938 pbc="F F F"
Mn       0.00000000       0.00000000       0.00000000       0.00000000       0.00000000       0.61896682
Mn       0.00000000       0.00000000       3.35454545       0.00000000       0.00000000      -0.61896682
2
Properties=species:S:1:pos:R:3:forces:R:3 energy=-10.999770336396313 pbc="F F F"
Mn       0.00000000       0.00000000       0.00000000       0.00000000       0.00000000       0.60644501
Mn       0.00000000       0.00000000       3.41333333       0.00000000       0.00000000      -0.60644501
2
Properties=species:S:1:pos:R:3:forces:R:3 energy=-10.964583498827746 pbc="F F F"
Mn       0.00000000       0.00000000       0.00000000       0.00000000       0.00000000       0.59073132
Mn       0.00000000       0.00000000       3.47212121       0.00000000       0.00000000      -0.59073132
2
Properties=species:S:1:pos:R:3:forces:R:3 energy=-10.930267849453925 pbc="F F F"
Mn       0.00000000       0.00000000       0.00000000       0.00000000       0.00000000       0.57723421
Mn       0.00000000       0.00000000       3.53090909       0.00000000       0.00000000      -0.57723421
2
Properties=species:S:1:pos:R:3:forces:R:3 energy=-10.896671180842581 pbc="F F F"
Mn       0.00000000       0.00000000       0.00000000       0.00000000       0.00000000       0.56585252
Mn       0.00000000       0.00000000       3.58969697       0.00000000       0.00000000      -0.56585252
2
Properties=species:S:1:pos:R:3:forces:R:3 energy=-10.863764905098826 pbc="F F F"
Mn       0.00000000       0.00000000       0.00000000       0.00000000       0.00000000       0.55304074
Mn       0.00000000       0.00000000       3.64848485       0.00000000       0.00000000      -0.55304074
2
Properties=species:S:1:pos:R:3:forces:R:3 energy=-10.831754965189852 pbc="F F F"
Mn       0.00000000       0.00000000       0.00000000       0.00000000       0.00000000       0.53477865
Mn       0.00000000       0.00000000       3.70727273       0.00000000       0.00000000      -0.53477865
2
Properties=species:S:1:pos:R:3:forces:R:3 energy=-10.801040807942385 pbc="F F F"
Mn       0.00000000       0.00000000       0.00000000       0.00000000       0.00000000       0.50877625
Mn       0.00000000       0.00000000       3.76606061       0.00000000       0.00000000      -0.50877625
2
Properties=species:S:1:pos:R:3:forces:R:3 energy=-10.772082873997865 pbc="F F F"
Mn       0.00000000       0.00000000       0.00000000       0.00000000       0.00000000       0.47526580
Mn       0.00000000       0.00000000       3.82484848       0.00000000       0.00000000      -0.47526580
2
Properties=species:S:1:pos:R:3:forces:R:3 energy=-10.74526160606908 pbc="F F F"
Mn       0.00000000       0.00000000       0.00000000       0.00000000       0.00000000       0.43661809
Mn       0.00000000       0.00000000       3.88363636       0.00000000       0.00000000      -0.43661809
2
Properties=species:S:1:pos:R:3:forces:R:3 energy=-10.720778266811257 pbc="F F F"
Mn       0.00000000       0.00000000       0.00000000       0.00000000       0.00000000       0.39639133
Mn       0.00000000       0.00000000       3.94242424       0.00000000       0.00000000      -0.39639133
2
Properties=species:S:1:pos:R:3:forces:R:3 energy=-10.698614833815622 pbc="F F F"
Mn       0.00000000       0.00000000       0.00000000       0.00000000       0.00000000       0.35828578
Mn       0.00000000       0.00000000       4.00121212       0.00000000       0.00000000      -0.35828578
2
Properties=species:S:1:pos:R:3:forces:R:3 energy=-10.678551203760959 pbc="F F F"
Mn       0.00000000       0.00000000       0.00000000       0.00000000       0.00000000       0.32531774
Mn       0.00000000       0.00000000       4.06000000       0.00000000       0.00000000      -0.32531774
2
Properties=species:S:1:pos:R:3:forces:R:3 energy=-10.66022714323031 pbc="F F F"
Mn       0.00000000       0.00000000       0.00000000       0.00000000       0.00000000       0.29932410
Mn       0.00000000       0.00000000       4.11878788       0.00000000       0.00000000      -0.29932410
2
Properties=species:S:1:pos:R:3:forces:R:3 energy=-10.643210794870653 pbc="F F F"
Mn       0.00000000       0.00000000       0.00000000       0.00000000       0.00000000       0.28081530
Mn       0.00000000       0.00000000       4.17757576       0.00000000       0.00000000      -0.28081530
2
Properties=species:S:1:pos:R:3:forces:R:3 energy=-10.627075867991728 pbc="F F F"
Mn       0.00000000       0.00000000       0.00000000       0.00000000       0.00000000       0.26915815
Mn       0.00000000       0.00000000       4.23636364       0.00000000       0.00000000      -0.26915815
2
Properties=species:S:1:pos:R:3:forces:R:3 energy=-10.611456786949638 pbc="F F F"
Mn       0.00000000       0.00000000       0.00000000       0.00000000       0.00000000       0.26297975
Mn       0.00000000       0.00000000       4.29515152       0.00000000       0.00000000      -0.26297975
2
Properties=species:S:1:pos:R:3:forces:R:3 energy=-10.596080048357692 pbc="F F F"
Mn       0.00000000       0.00000000       0.00000000       0.00000000       0.00000000       0.26067278
Mn       0.00000000       0.00000000       4.35393939       0.00000000       0.00000000      -0.26067278
2
Properties=species:S:1:pos:R:3:forces:R:3 energy=-10.580761036945598 pbc="F F F"
Mn       0.00000000       0.00000000       0.00000000       0.00000000       0.00000000       0.26079661
Mn       0.00000000       0.00000000       4.41272727       0.00000000       0.00000000      -0.26079661
2
Properties=species:S:1:pos:R:3:forces:R:3 energy=-10.565389726780365 pbc="F F F"
Mn       0.00000000       0.00000000       0.00000000       0.00000000       0.00000000       0.26230812
Mn       0.00000000       0.00000000       4.47151515       0.00000000       0.00000000      -0.26230812
2
Properties=species:S:1:pos:R:3:forces:R:3 energy=-10.5499055182667 pbc="F F F"
Mn       0.00000000       0.00000000       0.00000000       0.00000000       0.00000000       0.26455158
Mn       0.00000000       0.00000000       4.53030303       0.00000000       0.00000000      -0.26455158
2
Properties=species:S:1:pos:R:3:forces:R:3 energy=-10.534278082297305 pbc="F F F"
Mn       0.00000000       0.00000000       0.00000000       0.00000000       0.00000000       0.26711366
Mn       0.00000000       0.00000000       4.58909091       0.00000000       0.00000000      -0.26711366
2
Properties=species:S:1:pos:R:3:forces:R:3 energy=-10.51850051980592 pbc="F F F"
Mn       0.00000000       0.00000000       0.00000000       0.00000000       0.00000000       0.26961827
Mn       0.00000000       0.00000000       4.64787879       0.00000000       0.00000000      -0.26961827
2
Properties=species:S:1:pos:R:3:forces:R:3 energy=-10.502588218023666 pbc="F F F"
Mn       0.00000000       0.00000000       0.00000000       0.00000000       0.00000000       0.27157024
Mn       0.00000000       0.00000000       4.70666667       0.00000000       0.00000000      -0.27157024
2
Properties=species:S:1:pos:R:3:forces:R:3 energy=-10.486593976219583 pbc="F F F"
Mn       0.00000000       0.00000000       0.00000000       0.00000000       0.00000000       0.27230287
Mn       0.00000000       0.00000000       4.76545455       0.00000000       0.00000000      -0.27230287
2
Properties=species:S:1:pos:R:3:forces:R:3 energy=-10.47061086038793 pbc="F F F"
Mn       0.00000000       0.00000000       0.00000000       0.00000000       0.00000000       0.27104023
Mn       0.00000000       0.00000000       4.82424242       0.00000000       0.00000000      -0.27104023
2
Properties=species:S:1:pos:R:3:forces:R:3 energy=-10.454780640597226 pbc="F F F"
Mn       0.00000000       0.00000000       0.00000000       0.00000000       0.00000000       0.26702619
Mn       0.00000000       0.00000000       4.88303030       0.00000000       0.00000000      -0.26702619
2
Properties=species:S:1:pos:R:3:forces:R:3 energy=-10.439280395200294 pbc="F F F"
Mn       0.00000000       0.00000000       0.00000000       0.00000000       0.00000000       0.25969052
Mn       0.00000000       0.00000000       4.94181818       0.00000000       0.00000000      -0.25969052
2
Properties=species:S:1:pos:R:3:forces:R:3 energy=-10.424316804627484 pbc="F F F"
Mn       0.00000000       0.00000000       0.00000000       0.00000000       0.00000000       0.24878865
Mn       0.00000000       0.00000000       5.00060606       0.00000000       0.00000000      -0.24878865
2
Properties=species:S:1:pos:R:3:forces:R:3 energy=-10.410094778336719 pbc="F F F"
Mn       0.00000000       0.00000000       0.00000000       0.00000000       0.00000000       0.23450071
Mn       0.00000000       0.00000000       5.05939394       0.00000000       0.00000000      -0.23450071
2
Properties=species:S:1:pos:R:3:forces:R:3 energy=-10.396799201952943 pbc="F F F"
Mn       0.00000000       0.00000000       0.00000000       0.00000000       0.00000000       0.21746840
Mn       0.00000000       0.00000000       5.11818182       0.00000000       0.00000000      -0.21746840
2
Properties=species:S:1:pos:R:3:forces:R:3 energy=-10.384560747544738 pbc="F F F"
Mn       0.00000000       0.00000000       0.00000000       0.00000000       0.00000000       0.19869332
Mn       0.00000000       0.00000000       5.17696970       0.00000000       0.00000000      -0.19869332
2
Properties=species:S:1:pos:R:3:forces:R:3 energy=-10.373451222462155 pbc="F F F"
Mn       0.00000000       0.00000000       0.00000000       0.00000000       0.00000000       0.17927334
Mn       0.00000000       0.00000000       5.23575758       0.00000000       0.00000000      -0.17927334
2
Properties=species:S:1:pos:R:3:forces:R:3 energy=-10.363480629118216 pbc="F F F"
Mn       0.00000000       0.00000000       0.00000000       0.00000000       0.00000000       0.15996560
Mn       0.00000000       0.00000000       5.29454545       0.00000000       0.00000000      -0.15996560
2
Properties=species:S:1:pos:R:3:forces:R:3 energy=-10.354634586370441 pbc="F F F"
Mn       0.00000000       0.00000000       0.00000000       0.00000000       0.00000000       0.14108826
Mn       0.00000000       0.00000000       5.35333333       0.00000000       0.00000000      -0.14108826
2
Properties=species:S:1:pos:R:3:forces:R:3 energy=-10.346867661720196 pbc="F F F"
Mn       0.00000000       0.00000000       0.00000000       0.00000000       0.00000000       0.12355021
Mn       0.00000000       0.00000000       5.41212121       0.00000000       0.00000000      -0.12355021
2
Properties=species:S:1:pos:R:3:forces:R:3 energy=-10.34003569369836 pbc="F F F"
Mn       0.00000000       0.00000000       0.00000000       0.00000000       0.00000000       0.10959744
Mn       0.00000000       0.00000000       5.47090909       0.00000000       0.00000000      -0.10959744
2
Properties=species:S:1:pos:R:3:forces:R:3 energy=-10.333903570147488 pbc="F F F"
Mn       0.00000000       0.00000000       0.00000000       0.00000000       0.00000000       0.09941741
Mn       0.00000000       0.00000000       5.52969697       0.00000000       0.00000000      -0.09941741
2
Properties=species:S:1:pos:R:3:forces:R:3 energy=-10.328341727896602 pbc="F F F"
Mn       0.00000000       0.00000000       0.00000000       0.00000000       0.00000000       0.08960931
Mn       0.00000000       0.00000000       5.58848485       0.00000000       0.00000000      -0.08960931
2
Properties=species:S:1:pos:R:3:forces:R:3 energy=-10.32338151338887 pbc="F F F"
Mn       0.00000000       0.00000000       0.00000000       0.00000000       0.00000000       0.07937995
Mn       0.00000000       0.00000000       5.64727273       0.00000000       0.00000000      -0.07937995
2
Properties=species:S:1:pos:R:3:forces:R:3 energy=-10.318960611827743 pbc="F F F"
Mn       0.00000000       0.00000000       0.00000000       0.00000000       0.00000000       0.07156433
Mn       0.00000000       0.00000000       5.70606061       0.00000000       0.00000000      -0.07156433
2
Properties=species:S:1:pos:R:3:forces:R:3 energy=-10.31491645382012 pbc="F F F"
Mn       0.00000000       0.00000000       0.00000000       0.00000000       0.00000000       0.06563896
Mn       0.00000000       0.00000000       5.76484848       0.00000000       0.00000000      -0.06563896
2
Properties=species:S:1:pos:R:3:forces:R:3 energy=-10.31133718969954 pbc="F F F"
Mn       0.00000000       0.00000000       0.00000000       0.00000000       0.00000000       0.05488047
Mn       0.00000000       0.00000000       5.82363636       0.00000000       0.00000000      -0.05488047
2
Properties=species:S:1:pos:R:3:forces:R:3 energy=-10.308617012139996 pbc="F F F"
Mn       0.00000000       0.00000000       0.00000000       0.00000000       0.00000000       0.03722439
Mn       0.00000000       0.00000000       5.88242424       0.00000000       0.00000000      -0.03722439
2
Properties=species:S:1:pos:R:3:forces:R:3 energy=-10.306941276563215 pbc="F F F"
Mn       0.00000000       0.00000000       0.00000000       0.00000000       0.00000000       0.02068209
Mn       0.00000000       0.00000000       5.94121212       0.00000000       0.00000000      -0.02068209
2
Properties=species:S:1:pos:R:3:forces:R:3 energy=-10.305990817751052 pbc="F F F"
Mn       0.00000000       0.00000000       0.00000000       0.00000000       0.00000000       0.01369574
Mn       0.00000000       0.00000000       6.00000000       0.00000000       0.00000000      -0.01369574
