2
Properties=species:S:1:pos:R:3:forces:R:3 energy=6782.3522810945715 pbc="F F F"
Mo       0.00000000       0.00000000       0.00000000       0.00000000       0.00000000 -110769.00000000
Mo       0.00000000       0.00000000       0.18000000       0.00000000       0.00000000  110769.00000000
2
Properties=species:S:1:pos:R:3:forces:R:3 energy=2821.008531094571 pbc="F F F"
Mo       0.00000000       0.00000000       0.00000000       0.00000000       0.00000000  -38727.62109375
Mo       0.00000000       0.00000000       0.23878788       0.00000000       0.00000000   38727.62109375
2
Properties=species:S:1:pos:R:3:forces:R:3 energy=1327.0695662571568 pbc="F F F"
Mo       0.00000000       0.00000000       0.00000000       0.00000000       0.00000000  -15952.54980469
Mo       0.00000000       0.00000000       0.29757576       0.00000000       0.00000000   15952.54980469
2
Properties=species:S:1:pos:R:3:forces:R:3 energy=681.8223738743444 pbc="F F F"
Mo       0.00000000       0.00000000       0.00000000       0.00000000       0.00000000   -7270.62109375
Mo       0.00000000       0.00000000       0.35636364       0.00000000       0.00000000    7270.62109375
2
Properties=species:S:1:pos:R:3:forces:R:3 energy=378.50291587920316 pbc="F F F"
Mo       0.00000000       0.00000000       0.00000000       0.00000000       0.00000000   -3537.81445312
Mo       0.00000000       0.00000000       0.41515152       0.00000000       0.00000000    3537.81445312
2
Properties=species:S:1:pos:R:3:forces:R:3 energy=227.9127974836713 pbc="F F F"
Mo       0.00000000       0.00000000       0.00000000       0.00000000       0.00000000   -1794.12963867
Mo       0.00000000       0.00000000       0.47393939       0.00000000       0.00000000    1794.12963867
2
Properties=species:S:1:pos:R:3:forces:R:3 energy=150.78862148362327 pbc="F F F"
Mo       0.00000000       0.00000000       0.00000000       0.00000000       0.00000000    -925.30255127
Mo       0.00000000       0.00000000       0.53272727       0.00000000       0.00000000     925.30255127
2
Properties=species:S:1:pos:R:3:forces:R:3 energy=111.22483980236282 pbc="F F F"
Mo       0.00000000       0.00000000       0.00000000       0.00000000       0.00000000    -467.18951416
Mo       0.00000000       0.00000000       0.59151515       0.00000000       0.00000000     467.18951416
2
Properties=species:S:1:pos:R:3:forces:R:3 energy=91.62727518746057 pbc="F F F"
Mo       0.00000000       0.00000000       0.00000000       0.00000000       0.00000000    -248.21746826
Mo       0.00000000       0.00000000       0.65030303       0.00000000       0.00000000     248.21746826
2
Properties=species:S:1:pos:R:3:forces:R:3 energy=81.38208184539944 pbc="F F F"
Mo       0.00000000       0.00000000       0.00000000       0.00000000       0.00000000    -112.37677002
Mo       0.00000000       0.00000000       0.70909091       0.00000000       0.00000000     112.37677002
2
Properties=species:S:1:pos:R:3:forces:R:3 energy=76.94137770243692 pbc="F F F"
Mo       0.00000000       0.00000000       0.00000000       0.00000000       0.00000000     -49.14937210
Mo       0.00000000       0.00000000       0.76787879       0.00000000       0.00000000      49.14937210
2
Properties=species:S:1:pos:R:3:forces:R:3 energy=74.4345573405082 pbc="F F F"
Mo       0.00000000       0.00000000       0.00000000       0.00000000       0.00000000     -44.82447052
Mo       0.00000000       0.00000000       0.82666667       0.00000000       0.00000000      44.82447052
2
Properties=species:S:1:pos:R:3:forces:R:3 energy=71.04631314242577 pbc="F F F"
Mo       0.00000000       0.00000000       0.00000000       0.00000000       0.00000000     -74.52453613
Mo       0.00000000       0.00000000       0.88545455       0.00000000       0.00000000      74.52453613
2
Properties=species:S:1:pos:R:3:forces:R:3 energy=65.2891573912486 pbc="F F F"
Mo       0.00000000       0.00000000       0.00000000       0.00000000       0.00000000    -122.78537750
Mo       0.00000000       0.00000000       0.94424242       0.00000000       0.00000000     122.78537750
2
Properties=species:S:1:pos:R:3:forces:R:3 energy=56.61624182787142 pbc="F F F"
Mo       0.00000000       0.00000000       0.00000000       0.00000000       0.00000000    -170.77494812
Mo       0.00000000       0.00000000       1.00303030       0.00000000       0.00000000     170.77494812
2
Properties=species:S:1:pos:R:3:forces:R:3 energy=45.60499342605106 pbc="F F F"
Mo       0.00000000       0.00000000       0.00000000       0.00000000       0.00000000    -199.19653320
Mo       0.00000000       0.00000000       1.06181818       0.00000000       0.00000000     199.19653320
2
Properties=species:S:1:pos:R:3:forces:R:3 energy=33.68152920517464 pbc="F F F"
Mo       0.00000000       0.00000000       0.00000000       0.00000000       0.00000000    -203.66964722
Mo       0.00000000       0.00000000       1.12060606       0.00000000       0.00000000     203.66964722
2
Properties=species:S:1:pos:R:3:forces:R:3 energy=21.842681173204642 pbc="F F F"
Mo       0.00000000       0.00000000       0.00000000       0.00000000       0.00000000    -198.86924744
Mo       0.00000000       0.00000000       1.17939394       0.00000000       0.00000000     198.86924744
2
Properties=species:S:1:pos:R:3:forces:R:3 energy=11.039085341545563 pbc="F F F"
Mo       0.00000000       0.00000000       0.00000000       0.00000000       0.00000000    -155.38955688
Mo       0.00000000       0.00000000       1.23818182       0.00000000       0.00000000     155.38955688
2
Properties=species:S:1:pos:R:3:forces:R:3 energy=3.993585007076301 pbc="F F F"
Mo       0.00000000       0.00000000       0.00000000       0.00000000       0.00000000     -90.45751953
Mo       0.00000000       0.00000000       1.29696970       0.00000000       0.00000000      90.45751953
2
Properties=species:S:1:pos:R:3:forces:R:3 energy=-0.4446814055886974 pbc="F F F"
Mo       0.00000000       0.00000000       0.00000000       0.00000000       0.00000000     -65.39278412
Mo       0.00000000       0.00000000       1.35575758       0.00000000       0.00000000      65.39278412
2
Properties=species:S:1:pos:R:3:forces:R:3 energy=-3.961142815273315 pbc="F F F"
Mo       0.00000000       0.00000000       0.00000000       0.00000000       0.00000000     -54.83790207
Mo       0.00000000       0.00000000       1.41454545       0.00000000       0.00000000      54.83790207
2
Properties=species:S:1:pos:R:3:forces:R:3 energy=-6.889489179374678 pbc="F F F"
Mo       0.00000000       0.00000000       0.00000000       0.00000000       0.00000000     -44.56918335
Mo       0.00000000       0.00000000       1.47333333       0.00000000       0.00000000      44.56918335
2
Properties=species:S:1:pos:R:3:forces:R:3 energy=-9.191949508999876 pbc="F F F"
Mo       0.00000000       0.00000000       0.00000000       0.00000000       0.00000000     -33.86717224
Mo       0.00000000       0.00000000       1.53212121       0.00000000       0.00000000      33.86717224
2
Properties=species:S:1:pos:R:3:forces:R:3 energy=-10.89999906935639 pbc="F F F"
Mo       0.00000000       0.00000000       0.00000000       0.00000000       0.00000000     -24.56735039
Mo       0.00000000       0.00000000       1.59090909       0.00000000       0.00000000      24.56735039
2
Properties=species:S:1:pos:R:3:forces:R:3 energy=-12.120175381577631 pbc="F F F"
Mo       0.00000000       0.00000000       0.00000000       0.00000000       0.00000000     -17.25717926
Mo       0.00000000       0.00000000       1.64969697       0.00000000       0.00000000      17.25717926
2
Properties=species:S:1:pos:R:3:forces:R:3 energy=-12.959165649315173 pbc="F F F"
Mo       0.00000000       0.00000000       0.00000000       0.00000000       0.00000000     -11.48009109
Mo       0.00000000       0.00000000       1.70848485       0.00000000       0.00000000      11.48009109
2
Properties=species:S:1:pos:R:3:forces:R:3 energy=-13.487302954258384 pbc="F F F"
Mo       0.00000000       0.00000000       0.00000000       0.00000000       0.00000000      -6.60661411
Mo       0.00000000       0.00000000       1.76727273       0.00000000       0.00000000       6.60661411
2
Properties=species:S:1:pos:R:3:forces:R:3 energy=-13.749401019735211 pbc="F F F"
Mo       0.00000000       0.00000000       0.00000000       0.00000000       0.00000000      -2.42855024
Mo       0.00000000       0.00000000       1.82606061       0.00000000       0.00000000       2.42855024
2
Properties=species:S:1:pos:R:3:forces:R:3 energy=-13.787967590912173 pbc="F F F"
Mo       0.00000000       0.00000000       0.00000000       0.00000000       0.00000000       0.97434944
Mo       0.00000000       0.00000000       1.88484848       0.00000000       0.00000000      -0.97434944
2
Properties=species:S:1:pos:R:3:forces:R:3 energy=-13.65375024141291 pbc="F F F"
Mo       0.00000000       0.00000000       0.00000000       0.00000000       0.00000000       3.41115928
Mo       0.00000000       0.00000000       1.94363636       0.00000000       0.00000000      -3.41115928
2
Properties=species:S:1:pos:R:3:forces:R:3 energy=-13.409545595628048 pbc="F F F"
Mo       0.00000000       0.00000000       0.00000000       0.00000000       0.00000000       4.70416927
Mo       0.00000000       0.00000000       2.00242424       0.00000000       0.00000000      -4.70416927
2
Properties=species:S:1:pos:R:3:forces:R:3 energy=-13.120663374498694 pbc="F F F"
Mo       0.00000000       0.00000000       0.00000000       0.00000000       0.00000000       4.98955059
Mo       0.00000000       0.00000000       2.06121212       0.00000000       0.00000000      -4.98955059
2
Properties=species:S:1:pos:R:3:forces:R:3 energy=-12.833209276306048 pbc="F F F"
Mo       0.00000000       0.00000000       0.00000000       0.00000000       0.00000000       4.74773026
Mo       0.00000000       0.00000000       2.12000000       0.00000000       0.00000000      -4.74773026
2
Properties=species:S:1:pos:R:3:forces:R:3 energy=-12.563295156140748 pbc="F F F"
Mo       0.00000000       0.00000000       0.00000000       0.00000000       0.00000000       4.45254898
Mo       0.00000000       0.00000000       2.17878788       0.00000000       0.00000000      -4.45254898
2
Properties=species:S:1:pos:R:3:forces:R:3 energy=-12.30632896049627 pbc="F F F"
Mo       0.00000000       0.00000000       0.00000000       0.00000000       0.00000000       4.32233763
Mo       0.00000000       0.00000000       2.23757576       0.00000000       0.00000000      -4.32233763
2
Properties=species:S:1:pos:R:3:forces:R:3 energy=-12.051540977087171 pbc="F F F"
Mo       0.00000000       0.00000000       0.00000000       0.00000000       0.00000000       4.37097025
Mo       0.00000000       0.00000000       2.29636364       0.00000000       0.00000000      -4.37097025
2
Properties=species:S:1:pos:R:3:forces:R:3 energy=-11.790348854083373 pbc="F F F"
Mo       0.00000000       0.00000000       0.00000000       0.00000000       0.00000000       4.52269650
Mo       0.00000000       0.00000000       2.35515152       0.00000000       0.00000000      -4.52269650
2
Properties=species:S:1:pos:R:3:forces:R:3 energy=-11.520416513708824 pbc="F F F"
Mo       0.00000000       0.00000000       0.00000000       0.00000000       0.00000000       4.64038515
Mo       0.00000000       0.00000000       2.41393939       0.00000000       0.00000000      -4.64038515
2
Properties=species:S:1:pos:R:3:forces:R:3 energy=-11.248873261914028 pbc="F F F"
Mo       0.00000000       0.00000000       0.00000000       0.00000000       0.00000000       4.54977036
Mo       0.00000000       0.00000000       2.47272727       0.00000000       0.00000000      -4.54977036
2
Properties=species:S:1:pos:R:3:forces:R:3 energy=-10.991842789673914 pbc="F F F"
Mo       0.00000000       0.00000000       0.00000000       0.00000000       0.00000000       4.14005041
Mo       0.00000000       0.00000000       2.53151515       0.00000000       0.00000000      -4.14005041
2
Properties=species:S:1:pos:R:3:forces:R:3 energy=-10.767513508348662 pbc="F F F"
Mo       0.00000000       0.00000000       0.00000000       0.00000000       0.00000000       3.45883656
Mo       0.00000000       0.00000000       2.59030303       0.00000000       0.00000000      -3.45883656
2
Properties=species:S:1:pos:R:3:forces:R:3 energy=-10.587106467008654 pbc="F F F"
Mo       0.00000000       0.00000000       0.00000000       0.00000000       0.00000000       2.67844605
Mo       0.00000000       0.00000000       2.64909091       0.00000000       0.00000000      -2.67844605
2
Properties=species:S:1:pos:R:3:forces:R:3 energy=-10.451069294619083 pbc="F F F"
Mo       0.00000000       0.00000000       0.00000000       0.00000000       0.00000000       1.97277582
Mo       0.00000000       0.00000000       2.70787879       0.00000000       0.00000000      -1.97277582
2
Properties=species:S:1:pos:R:3:forces:R:3 energy=-10.35178847040126 pbc="F F F"
Mo       0.00000000       0.00000000       0.00000000       0.00000000       0.00000000       1.43633342
Mo       0.00000000       0.00000000       2.76666667       0.00000000       0.00000000      -1.43633342
2
Properties=species:S:1:pos:R:3:forces:R:3 energy=-10.278482226573063 pbc="F F F"
Mo       0.00000000       0.00000000       0.00000000       0.00000000       0.00000000       1.08801043
Mo       0.00000000       0.00000000       2.82545455       0.00000000       0.00000000      -1.08801043
2
Properties=species:S:1:pos:R:3:forces:R:3 energy=-10.220534888251096 pbc="F F F"
Mo       0.00000000       0.00000000       0.00000000       0.00000000       0.00000000       0.90912706
Mo       0.00000000       0.00000000       2.88424242       0.00000000       0.00000000      -0.90912706
2
Properties=species:S:1:pos:R:3:forces:R:3 energy=-10.168987886260972 pbc="F F F"
Mo       0.00000000       0.00000000       0.00000000       0.00000000       0.00000000       0.86236197
Mo       0.00000000       0.00000000       2.94303030       0.00000000       0.00000000      -0.86236197
2
Properties=species:S:1:pos:R:3:forces:R:3 energy=-10.117684674258319 pbc="F F F"
Mo       0.00000000       0.00000000       0.00000000       0.00000000       0.00000000       0.88947940
Mo       0.00000000       0.00000000       3.00181818       0.00000000       0.00000000      -0.88947940
2
Properties=species:S:1:pos:R:3:forces:R:3 energy=-10.06429735394741 pbc="F F F"
Mo       0.00000000       0.00000000       0.00000000       0.00000000       0.00000000       0.92309755
Mo       0.00000000       0.00000000       3.06060606       0.00000000       0.00000000      -0.92309755
2
Properties=species:S:1:pos:R:3:forces:R:3 energy=-10.00986165024973 pbc="F F F"
Mo       0.00000000       0.00000000       0.00000000       0.00000000       0.00000000       0.92222947
Mo       0.00000000       0.00000000       3.11939394       0.00000000       0.00000000      -0.92222947
2
Properties=species:S:1:pos:R:3:forces:R:3 energy=-9.956473488369785 pbc="F F F"
Mo       0.00000000       0.00000000       0.00000000       0.00000000       0.00000000       0.89115119
Mo       0.00000000       0.00000000       3.17818182       0.00000000       0.00000000      -0.89115119
2
Properties=species:S:1:pos:R:3:forces:R:3 energy=-9.905128343459442 pbc="F F F"
Mo       0.00000000       0.00000000       0.00000000       0.00000000       0.00000000       0.85722643
Mo       0.00000000       0.00000000       3.23696970       0.00000000       0.00000000      -0.85722643
2
Properties=species:S:1:pos:R:3:forces:R:3 energy=-9.855414897582358 pbc="F F F"
Mo       0.00000000       0.00000000       0.00000000       0.00000000       0.00000000       0.83609617
Mo       0.00000000       0.00000000       3.29575758       0.00000000       0.00000000      -0.83609617
2
Properties=species:S:1:pos:R:3:forces:R:3 energy=-9.80676158465326 pbc="F F F"
Mo       0.00000000       0.00000000       0.00000000       0.00000000       0.00000000       0.81769013
Mo       0.00000000       0.00000000       3.35454545       0.00000000       0.00000000      -0.81769013
2
Properties=species:S:1:pos:R:3:forces:R:3 energy=-9.75968821272757 pbc="F F F"
Mo       0.00000000       0.00000000       0.00000000       0.00000000       0.00000000       0.77842605
Mo       0.00000000       0.00000000       3.41333333       0.00000000       0.00000000      -0.77842605
2
Properties=species:S:1:pos:R:3:forces:R:3 energy=-9.715976652958437 pbc="F F F"
Mo       0.00000000       0.00000000       0.00000000       0.00000000       0.00000000       0.70207965
Mo       0.00000000       0.00000000       3.47212121       0.00000000       0.00000000      -0.70207965
2
Properties=species:S:1:pos:R:3:forces:R:3 energy=-9.677853313394476 pbc="F F F"
Mo       0.00000000       0.00000000       0.00000000       0.00000000       0.00000000       0.58988047
Mo       0.00000000       0.00000000       3.53090909       0.00000000       0.00000000      -0.58988047
2
Properties=species:S:1:pos:R:3:forces:R:3 energy=-9.647037266674605 pbc="F F F"
Mo       0.00000000       0.00000000       0.00000000       0.00000000       0.00000000       0.45658147
Mo       0.00000000       0.00000000       3.58969697       0.00000000       0.00000000      -0.45658147
2
Properties=species:S:1:pos:R:3:forces:R:3 energy=-9.624184029498686 pbc="F F F"
Mo       0.00000000       0.00000000       0.00000000       0.00000000       0.00000000       0.32259500
Mo       0.00000000       0.00000000       3.64848485       0.00000000       0.00000000      -0.32259500
2
Properties=species:S:1:pos:R:3:forces:R:3 energy=-9.608710631418719 pbc="F F F"
Mo       0.00000000       0.00000000       0.00000000       0.00000000       0.00000000       0.20881809
Mo       0.00000000       0.00000000       3.70727273       0.00000000       0.00000000      -0.20881809
2
Properties=species:S:1:pos:R:3:forces:R:3 energy=-9.598885228546358 pbc="F F F"
Mo       0.00000000       0.00000000       0.00000000       0.00000000       0.00000000       0.13286854
Mo       0.00000000       0.00000000       3.76606061       0.00000000       0.00000000      -0.13286854
2
Properties=species:S:1:pos:R:3:forces:R:3 energy=-9.592133866572912 pbc="F F F"
Mo       0.00000000       0.00000000       0.00000000       0.00000000       0.00000000       0.10526589
Mo       0.00000000       0.00000000       3.82484848       0.00000000       0.00000000      -0.10526589
2
Properties=species:S:1:pos:R:3:forces:R:3 energy=-9.585533932864186 pbc="F F F"
Mo       0.00000000       0.00000000       0.00000000       0.00000000       0.00000000       0.12709661
Mo       0.00000000       0.00000000       3.88363636       0.00000000       0.00000000      -0.12709661
2
Properties=species:S:1:pos:R:3:forces:R:3 energy=-9.57637265782179 pbc="F F F"
Mo       0.00000000       0.00000000       0.00000000       0.00000000       0.00000000       0.19043180
Mo       0.00000000       0.00000000       3.94242424       0.00000000       0.00000000      -0.19043180
2
Properties=species:S:1:pos:R:3:forces:R:3 energy=-9.562609342815664 pbc="F F F"
Mo       0.00000000       0.00000000       0.00000000       0.00000000       0.00000000       0.28096873
Mo       0.00000000       0.00000000       4.00121212       0.00000000       0.00000000      -0.28096873
2
Properties=species:S:1:pos:R:3:forces:R:3 energy=-9.543140602021289 pbc="F F F"
Mo       0.00000000       0.00000000       0.00000000       0.00000000       0.00000000       0.38161430
Mo       0.00000000       0.00000000       4.06000000       0.00000000       0.00000000      -0.38161430
2
Properties=species:S:1:pos:R:3:forces:R:3 energy=-9.517866375023775 pbc="F F F"
Mo       0.00000000       0.00000000       0.00000000       0.00000000       0.00000000       0.47593337
Mo       0.00000000       0.00000000       4.11878788       0.00000000       0.00000000      -0.47593337
2
Properties=species:S:1:pos:R:3:forces:R:3 energy=-9.487567533387502 pbc="F F F"
Mo       0.00000000       0.00000000       0.00000000       0.00000000       0.00000000       0.55076301
Mo       0.00000000       0.00000000       4.17757576       0.00000000       0.00000000      -0.55076301
2
Properties=species:S:1:pos:R:3:forces:R:3 energy=-9.453660976426132 pbc="F F F"
Mo       0.00000000       0.00000000       0.00000000       0.00000000       0.00000000       0.59766400
Mo       0.00000000       0.00000000       4.23636364       0.00000000       0.00000000      -0.59766400
2
Properties=species:S:1:pos:R:3:forces:R:3 energy=-9.417911387140222 pbc="F F F"
Mo       0.00000000       0.00000000       0.00000000       0.00000000       0.00000000       0.61327410
Mo       0.00000000       0.00000000       4.29515152       0.00000000       0.00000000      -0.61327410
2
Properties=species:S:1:pos:R:3:forces:R:3 energy=-9.382148181014573 pbc="F F F"
Mo       0.00000000       0.00000000       0.00000000       0.00000000       0.00000000       0.59871155
Mo       0.00000000       0.00000000       4.35393939       0.00000000       0.00000000      -0.59871155
2
Properties=species:S:1:pos:R:3:forces:R:3 energy=-9.348025709276644 pbc="F F F"
Mo       0.00000000       0.00000000       0.00000000       0.00000000       0.00000000       0.55835152
Mo       0.00000000       0.00000000       4.41272727       0.00000000       0.00000000      -0.55835152
2
Properties=species:S:1:pos:R:3:forces:R:3 energy=-9.316885001463257 pbc="F F F"
Mo       0.00000000       0.00000000       0.00000000       0.00000000       0.00000000       0.49832591
Mo       0.00000000       0.00000000       4.47151515       0.00000000       0.00000000      -0.49832591
2
Properties=species:S:1:pos:R:3:forces:R:3 energy=-9.289690765894909 pbc="F F F"
Mo       0.00000000       0.00000000       0.00000000       0.00000000       0.00000000       0.42514890
Mo       0.00000000       0.00000000       4.53030303       0.00000000       0.00000000      -0.42514890
2
Properties=species:S:1:pos:R:3:forces:R:3 energy=-9.267038746637597 pbc="F F F"
Mo       0.00000000       0.00000000       0.00000000       0.00000000       0.00000000       0.34474039
Mo       0.00000000       0.00000000       4.58909091       0.00000000       0.00000000      -0.34474039
2
Properties=species:S:1:pos:R:3:forces:R:3 energy=-9.249203280505766 pbc="F F F"
Mo       0.00000000       0.00000000       0.00000000       0.00000000       0.00000000       0.26199970
Mo       0.00000000       0.00000000       4.64787879       0.00000000       0.00000000      -0.26199970
2
Properties=species:S:1:pos:R:3:forces:R:3 energy=-9.236203024562391 pbc="F F F"
Mo       0.00000000       0.00000000       0.00000000       0.00000000       0.00000000       0.18081394
Mo       0.00000000       0.00000000       4.70666667       0.00000000       0.00000000      -0.18081394
2
Properties=species:S:1:pos:R:3:forces:R:3 energy=-9.227851291781496 pbc="F F F"
Mo       0.00000000       0.00000000       0.00000000       0.00000000       0.00000000       0.10436943
Mo       0.00000000       0.00000000       4.76545455       0.00000000       0.00000000      -0.10436943
2
Properties=species:S:1:pos:R:3:forces:R:3 energy=-9.223783625239953 pbc="F F F"
Mo       0.00000000       0.00000000       0.00000000       0.00000000       0.00000000       0.03546518
Mo       0.00000000       0.00000000       4.82424242       0.00000000       0.00000000      -0.03546518
2
Properties=species:S:1:pos:R:3:forces:R:3 energy=-9.223480584930762 pbc="F F F"
Mo       0.00000000       0.00000000       0.00000000       0.00000000       0.00000000      -0.02322064
Mo       0.00000000       0.00000000       4.88303030       0.00000000       0.00000000       0.02322064
2
Properties=species:S:1:pos:R:3:forces:R:3 energy=-9.226264734684648 pbc="F F F"
Mo       0.00000000       0.00000000       0.00000000       0.00000000       0.00000000      -0.06914926
Mo       0.00000000       0.00000000       4.94181818       0.00000000       0.00000000       0.06914926
2
Properties=species:S:1:pos:R:3:forces:R:3 energy=-9.231316841962137 pbc="F F F"
Mo       0.00000000       0.00000000       0.00000000       0.00000000       0.00000000      -0.10006140
Mo       0.00000000       0.00000000       5.00060606       0.00000000       0.00000000       0.10006140
2
Properties=species:S:1:pos:R:3:forces:R:3 energy=-9.237704491250888 pbc="F F F"
Mo       0.00000000       0.00000000       0.00000000       0.00000000       0.00000000      -0.11441077
Mo       0.00000000       0.00000000       5.05939394       0.00000000       0.00000000       0.11441077
2
Properties=species:S:1:pos:R:3:forces:R:3 energy=-9.244436316788825 pbc="F F F"
Mo       0.00000000       0.00000000       0.00000000       0.00000000       0.00000000      -0.11184353
Mo       0.00000000       0.00000000       5.11818182       0.00000000       0.00000000       0.11184353
2
Properties=species:S:1:pos:R:3:forces:R:3 energy=-9.250548840779917 pbc="F F F"
Mo       0.00000000       0.00000000       0.00000000       0.00000000       0.00000000      -0.09381198
Mo       0.00000000       0.00000000       5.17696970       0.00000000       0.00000000       0.09381198
2
Properties=species:S:1:pos:R:3:forces:R:3 energy=-9.255239053131094 pbc="F F F"
Mo       0.00000000       0.00000000       0.00000000       0.00000000       0.00000000      -0.06438257
Mo       0.00000000       0.00000000       5.23575758       0.00000000       0.00000000       0.06438257
2
Properties=species:S:1:pos:R:3:forces:R:3 energy=-9.258041798042907 pbc="F F F"
Mo       0.00000000       0.00000000       0.00000000       0.00000000       0.00000000      -0.03114640
Mo       0.00000000       0.00000000       5.29454545       0.00000000       0.00000000       0.03114640
2
Properties=species:S:1:pos:R:3:forces:R:3 energy=-9.259022514423943 pbc="F F F"
Mo       0.00000000       0.00000000       0.00000000       0.00000000       0.00000000      -0.00390381
Mo       0.00000000       0.00000000       5.35333333       0.00000000       0.00000000       0.00390381
2
Properties=species:S:1:pos:R:3:forces:R:3 energy=-9.25870565646411 pbc="F F F"
Mo       0.00000000       0.00000000       0.00000000       0.00000000       0.00000000       0.01345801
Mo       0.00000000       0.00000000       5.41212121       0.00000000       0.00000000      -0.01345801
2
Properties=species:S:1:pos:R:3:forces:R:3 energy=-9.257446386986881 pbc="F F F"
Mo       0.00000000       0.00000000       0.00000000       0.00000000       0.00000000       0.03039167
Mo       0.00000000       0.00000000       5.47090909       0.00000000       0.00000000      -0.03039167
2
Properties=species:S:1:pos:R:3:forces:R:3 energy=-9.255010941743137 pbc="F F F"
Mo       0.00000000       0.00000000       0.00000000       0.00000000       0.00000000       0.05267615
Mo       0.00000000       0.00000000       5.52969697       0.00000000       0.00000000      -0.05267615
2
Properties=species:S:1:pos:R:3:forces:R:3 energy=-9.251385421259217 pbc="F F F"
Mo       0.00000000       0.00000000       0.00000000       0.00000000       0.00000000       0.06865025
Mo       0.00000000       0.00000000       5.58848485       0.00000000       0.00000000      -0.06865025
2
Properties=species:S:1:pos:R:3:forces:R:3 energy=-9.247125909688279 pbc="F F F"
Mo       0.00000000       0.00000000       0.00000000       0.00000000       0.00000000       0.07591049
Mo       0.00000000       0.00000000       5.64727273       0.00000000       0.00000000      -0.07591049
2
Properties=species:S:1:pos:R:3:forces:R:3 energy=-9.24230271616035 pbc="F F F"
Mo       0.00000000       0.00000000       0.00000000       0.00000000       0.00000000       0.09084095
Mo       0.00000000       0.00000000       5.70606061       0.00000000       0.00000000      -0.09084095
2
Properties=species:S:1:pos:R:3:forces:R:3 energy=-9.236234397850529 pbc="F F F"
Mo       0.00000000       0.00000000       0.00000000       0.00000000       0.00000000       0.11443254
Mo       0.00000000       0.00000000       5.76484848       0.00000000       0.00000000      -0.11443254
2
Properties=species:S:1:pos:R:3:forces:R:3 energy=-9.229364705075287 pbc="F F F"
Mo       0.00000000       0.00000000       0.00000000       0.00000000       0.00000000       0.11277190
Mo       0.00000000       0.00000000       5.82363636       0.00000000       0.00000000      -0.11277190
2
Properties=species:S:1:pos:R:3:forces:R:3 energy=-9.223740289761595 pbc="F F F"
Mo       0.00000000       0.00000000       0.00000000       0.00000000       0.00000000       0.07485783
Mo       0.00000000       0.00000000       5.88242424       0.00000000       0.00000000      -0.07485783
2
Properties=species:S:1:pos:R:3:forces:R:3 energy=-9.220650497730178 pbc="F F F"
Mo       0.00000000       0.00000000       0.00000000       0.00000000       0.00000000       0.03219379
Mo       0.00000000       0.00000000       5.94121212       0.00000000       0.00000000      -0.03219379
2
Properties=species:S:1:pos:R:3:forces:R:3 energy=-9.219447681485677 pbc="F F F"
Mo       0.00000000       0.00000000       0.00000000       0.00000000       0.00000000       0.01437535
Mo       0.00000000       0.00000000       6.00000000       0.00000000       0.00000000      -0.01437535
