2
Properties=species:S:1:pos:R:3:forces:R:3 energy=32061.247300625822 pbc="F F F"
Mo       0.00000000       0.00000000       0.00000000       0.00000000       0.00000000 -757923.75000000
Mo       0.00000000       0.00000000       0.10000000       0.00000000       0.00000000  757923.75000000
2
Properties=species:S:1:pos:R:3:forces:R:3 energy=9585.39280843832 pbc="F F F"
Mo       0.00000000       0.00000000       0.00000000       0.00000000       0.00000000 -168881.81250000
Mo       0.00000000       0.00000000       0.15959596       0.00000000       0.00000000  168881.81250000
2
Properties=species:S:1:pos:R:3:forces:R:3 energy=3717.639390469571 pbc="F F F"
Mo       0.00000000       0.00000000       0.00000000       0.00000000       0.00000000  -53751.09375000
Mo       0.00000000       0.00000000       0.21919192       0.00000000       0.00000000   53751.09375000
2
Properties=species:S:1:pos:R:3:forces:R:3 energy=1670.8659529695713 pbc="F F F"
Mo       0.00000000       0.00000000       0.00000000       0.00000000       0.00000000  -20900.82226562
Mo       0.00000000       0.00000000       0.27878788       0.00000000       0.00000000   20900.82226562
2
Properties=species:S:1:pos:R:3:forces:R:3 energy=828.8818221165319 pbc="F F F"
Mo       0.00000000       0.00000000       0.00000000       0.00000000       0.00000000   -9169.78125000
Mo       0.00000000       0.00000000       0.33838384       0.00000000       0.00000000    9169.78125000
2
Properties=species:S:1:pos:R:3:forces:R:3 energy=445.9124312537269 pbc="F F F"
Mo       0.00000000       0.00000000       0.00000000       0.00000000       0.00000000   -4343.41601562
Mo       0.00000000       0.00000000       0.39797980       0.00000000       0.00000000    4343.41601562
2
Properties=species:S:1:pos:R:3:forces:R:3 energy=260.1764998699138 pbc="F F F"
Mo       0.00000000       0.00000000       0.00000000       0.00000000       0.00000000   -2161.16381836
Mo       0.00000000       0.00000000       0.45757576       0.00000000       0.00000000    2161.16381836
2
Properties=species:S:1:pos:R:3:forces:R:3 energy=166.5222335378345 pbc="F F F"
Mo       0.00000000       0.00000000       0.00000000       0.00000000       0.00000000   -1102.63183594
Mo       0.00000000       0.00000000       0.51717172       0.00000000       0.00000000    1102.63183594
2
Properties=species:S:1:pos:R:3:forces:R:3 energy=118.76333770816058 pbc="F F F"
Mo       0.00000000       0.00000000       0.00000000       0.00000000       0.00000000    -557.38079834
Mo       0.00000000       0.00000000       0.57676768       0.00000000       0.00000000     557.38079834
2
Properties=species:S:1:pos:R:3:forces:R:3 energy=95.23399513282112 pbc="F F F"
Mo       0.00000000       0.00000000       0.00000000       0.00000000       0.00000000    -268.50546265
Mo       0.00000000       0.00000000       0.63636364       0.00000000       0.00000000     268.50546265
2
Properties=species:S:1:pos:R:3:forces:R:3 energy=83.00654774976839 pbc="F F F"
Mo       0.00000000       0.00000000       0.00000000       0.00000000       0.00000000    -135.64753723
Mo       0.00000000       0.00000000       0.69595960       0.00000000       0.00000000     135.64753723
2
Properties=species:S:1:pos:R:3:forces:R:3 energy=77.59453012390773 pbc="F F F"
Mo       0.00000000       0.00000000       0.00000000       0.00000000       0.00000000     -57.29870605
Mo       0.00000000       0.00000000       0.75555556       0.00000000       0.00000000      57.29870605
2
Properties=species:S:1:pos:R:3:forces:R:3 energy=74.93269569221485 pbc="F F F"
Mo       0.00000000       0.00000000       0.00000000       0.00000000       0.00000000     -41.91121292
Mo       0.00000000       0.00000000       0.81515152       0.00000000       0.00000000      41.91121292
2
Properties=species:S:1:pos:R:3:forces:R:3 energy=71.80464435255487 pbc="F F F"
Mo       0.00000000       0.00000000       0.00000000       0.00000000       0.00000000     -67.27355957
Mo       0.00000000       0.00000000       0.87474747       0.00000000       0.00000000      67.27355957
2
Properties=species:S:1:pos:R:3:forces:R:3 energy=66.4623140091526 pbc="F F F"
Mo       0.00000000       0.00000000       0.00000000       0.00000000       0.00000000    -114.21955872
Mo       0.00000000       0.00000000       0.93434343       0.00000000       0.00000000     114.21955872
2
Properties=species:S:1:pos:R:3:forces:R:3 energy=58.13885520120658 pbc="F F F"
Mo       0.00000000       0.00000000       0.00000000       0.00000000       0.00000000    -164.11096191
Mo       0.00000000       0.00000000       0.99393939       0.00000000       0.00000000     164.11096191
2
Properties=species:S:1:pos:R:3:forces:R:3 energy=47.24576700917509 pbc="F F F"
Mo       0.00000000       0.00000000       0.00000000       0.00000000       0.00000000    -196.89672852
Mo       0.00000000       0.00000000       1.05353535       0.00000000       0.00000000     196.89672852
2
Properties=species:S:1:pos:R:3:forces:R:3 energy=35.20490163990922 pbc="F F F"
Mo       0.00000000       0.00000000       0.00000000       0.00000000       0.00000000    -203.90499878
Mo       0.00000000       0.00000000       1.11313131       0.00000000       0.00000000     203.90499878
2
Properties=species:S:1:pos:R:3:forces:R:3 energy=23.170647609842348 pbc="F F F"
Mo       0.00000000       0.00000000       0.00000000       0.00000000       0.00000000    -199.47004700
Mo       0.00000000       0.00000000       1.17272727       0.00000000       0.00000000     199.47004700
2
Properties=species:S:1:pos:R:3:forces:R:3 energy=11.971437116145966 pbc="F F F"
Mo       0.00000000       0.00000000       0.00000000       0.00000000       0.00000000    -162.85159302
Mo       0.00000000       0.00000000       1.23232323       0.00000000       0.00000000     162.85159302
2
Properties=species:S:1:pos:R:3:forces:R:3 energy=4.460047779283344 pbc="F F F"
Mo       0.00000000       0.00000000       0.00000000       0.00000000       0.00000000     -94.32615662
Mo       0.00000000       0.00000000       1.29191919       0.00000000       0.00000000      94.32615662
2
Properties=species:S:1:pos:R:3:forces:R:3 energy=-0.1651321363483531 pbc="F F F"
Mo       0.00000000       0.00000000       0.00000000       0.00000000       0.00000000     -66.40442657
Mo       0.00000000       0.00000000       1.35151515       0.00000000       0.00000000      66.40442657
2
Properties=species:S:1:pos:R:3:forces:R:3 energy=-3.7718559717291615 pbc="F F F"
Mo       0.00000000       0.00000000       0.00000000       0.00000000       0.00000000     -55.39951324
Mo       0.00000000       0.00000000       1.41111111       0.00000000       0.00000000      55.39951324
2
Properties=species:S:1:pos:R:3:forces:R:3 energy=-6.771805615010847 pbc="F F F"
Mo       0.00000000       0.00000000       0.00000000       0.00000000       0.00000000     -45.05230713
Mo       0.00000000       0.00000000       1.47070707       0.00000000       0.00000000      45.05230713
2
Properties=species:S:1:pos:R:3:forces:R:3 energy=-9.130083974852992 pbc="F F F"
Mo       0.00000000       0.00000000       0.00000000       0.00000000       0.00000000     -34.18407822
Mo       0.00000000       0.00000000       1.53030303       0.00000000       0.00000000      34.18407822
2
Properties=species:S:1:pos:R:3:forces:R:3 energy=-10.875108353431873 pbc="F F F"
Mo       0.00000000       0.00000000       0.00000000       0.00000000       0.00000000     -24.71012115
Mo       0.00000000       0.00000000       1.58989899       0.00000000       0.00000000      24.71012115
2
Properties=species:S:1:pos:R:3:forces:R:3 energy=-12.116694514672258 pbc="F F F"
Mo       0.00000000       0.00000000       0.00000000       0.00000000       0.00000000     -17.27922630
Mo       0.00000000       0.00000000       1.64949495       0.00000000       0.00000000      17.27922630
2
Properties=species:S:1:pos:R:3:forces:R:3 energy=-12.966108233611857 pbc="F F F"
Mo       0.00000000       0.00000000       0.00000000       0.00000000       0.00000000     -11.42601490
Mo       0.00000000       0.00000000       1.70909091       0.00000000       0.00000000      11.42601490
2
Properties=species:S:1:pos:R:3:forces:R:3 energy=-13.496571246101858 pbc="F F F"
Mo       0.00000000       0.00000000       0.00000000       0.00000000       0.00000000      -6.49792051
Mo       0.00000000       0.00000000       1.76868687       0.00000000       0.00000000       6.49792051
2
Properties=species:S:1:pos:R:3:forces:R:3 energy=-13.754636783758974 pbc="F F F"
Mo       0.00000000       0.00000000       0.00000000       0.00000000       0.00000000      -2.28492832
Mo       0.00000000       0.00000000       1.82828283       0.00000000       0.00000000       2.28492832
2
Properties=species:S:1:pos:R:3:forces:R:3 energy=-13.784784764893473 pbc="F F F"
Mo       0.00000000       0.00000000       0.00000000       0.00000000       0.00000000       1.12558782
Mo       0.00000000       0.00000000       1.88787879       0.00000000       0.00000000      -1.12558782
2
Properties=species:S:1:pos:R:3:forces:R:3 energy=-13.640427367182903 pbc="F F F"
Mo       0.00000000       0.00000000       0.00000000       0.00000000       0.00000000       3.53125715
Mo       0.00000000       0.00000000       1.94747475       0.00000000       0.00000000      -3.53125715
2
Properties=species:S:1:pos:R:3:forces:R:3 energy=-13.387556926967013 pbc="F F F"
Mo       0.00000000       0.00000000       0.00000000       0.00000000       0.00000000       4.75863457
Mo       0.00000000       0.00000000       2.00707071       0.00000000       0.00000000      -4.75863457
2
Properties=species:S:1:pos:R:3:forces:R:3 energy=-13.093471658499992 pbc="F F F"
Mo       0.00000000       0.00000000       0.00000000       0.00000000       0.00000000       4.98073912
Mo       0.00000000       0.00000000       2.06666667       0.00000000       0.00000000      -4.98073912
2
Properties=species:S:1:pos:R:3:forces:R:3 energy=-12.803584078219188 pbc="F F F"
Mo       0.00000000       0.00000000       0.00000000       0.00000000       0.00000000       4.71264362
Mo       0.00000000       0.00000000       2.12626263       0.00000000       0.00000000      -4.71264362
2
Properties=species:S:1:pos:R:3:forces:R:3 energy=-12.531907320827042 pbc="F F F"
Mo       0.00000000       0.00000000       0.00000000       0.00000000       0.00000000       4.42657042
Mo       0.00000000       0.00000000       2.18585859       0.00000000       0.00000000      -4.42657042
2
Properties=species:S:1:pos:R:3:forces:R:3 energy=-12.272282864067698 pbc="F F F"
Mo       0.00000000       0.00000000       0.00000000       0.00000000       0.00000000       4.31952000
Mo       0.00000000       0.00000000       2.24545455       0.00000000       0.00000000      -4.31952000
2
Properties=species:S:1:pos:R:3:forces:R:3 energy=-12.013492873105283 pbc="F F F"
Mo       0.00000000       0.00000000       0.00000000       0.00000000       0.00000000       4.38949490
Mo       0.00000000       0.00000000       2.30505051       0.00000000       0.00000000      -4.38949490
2
Properties=species:S:1:pos:R:3:forces:R:3 energy=-11.747281542208208 pbc="F F F"
Mo       0.00000000       0.00000000       0.00000000       0.00000000       0.00000000       4.54846239
Mo       0.00000000       0.00000000       2.36464646       0.00000000       0.00000000      -4.54846239
2
Properties=species:S:1:pos:R:3:forces:R:3 energy=-11.47257973527494 pbc="F F F"
Mo       0.00000000       0.00000000       0.00000000       0.00000000       0.00000000       4.64426184
Mo       0.00000000       0.00000000       2.42424242       0.00000000       0.00000000      -4.64426184
2
Properties=species:S:1:pos:R:3:forces:R:3 energy=-11.198596632601642 pbc="F F F"
Mo       0.00000000       0.00000000       0.00000000       0.00000000       0.00000000       4.49775600
Mo       0.00000000       0.00000000       2.48383838       0.00000000       0.00000000      -4.49775600
2
Properties=species:S:1:pos:R:3:forces:R:3 energy=-10.943203717786483 pbc="F F F"
Mo       0.00000000       0.00000000       0.00000000       0.00000000       0.00000000       4.01939154
Mo       0.00000000       0.00000000       2.54343434       0.00000000       0.00000000      -4.01939154
2
Properties=species:S:1:pos:R:3:forces:R:3 energy=-10.724553497075968 pbc="F F F"
Mo       0.00000000       0.00000000       0.00000000       0.00000000       0.00000000       3.29150391
Mo       0.00000000       0.00000000       2.60303030       0.00000000       0.00000000      -3.29150391
2
Properties=species:S:1:pos:R:3:forces:R:3 energy=-10.552037211376403 pbc="F F F"
Mo       0.00000000       0.00000000       0.00000000       0.00000000       0.00000000       2.50442934
Mo       0.00000000       0.00000000       2.66262626       0.00000000       0.00000000      -2.50442934
2
Properties=species:S:1:pos:R:3:forces:R:3 energy=-10.42384889497665 pbc="F F F"
Mo       0.00000000       0.00000000       0.00000000       0.00000000       0.00000000       1.82457089
Mo       0.00000000       0.00000000       2.72222222       0.00000000       0.00000000      -1.82457089
2
Properties=species:S:1:pos:R:3:forces:R:3 energy=-10.330855281095442 pbc="F F F"
Mo       0.00000000       0.00000000       0.00000000       0.00000000       0.00000000       1.32892692
Mo       0.00000000       0.00000000       2.78181818       0.00000000       0.00000000      -1.32892692
2
Properties=species:S:1:pos:R:3:forces:R:3 energy=-10.261645408501726 pbc="F F F"
Mo       0.00000000       0.00000000       0.00000000       0.00000000       0.00000000       1.02392948
Mo       0.00000000       0.00000000       2.84141414       0.00000000       0.00000000      -1.02392948
2
Properties=species:S:1:pos:R:3:forces:R:3 energy=-10.205511825258606 pbc="F F F"
Mo       0.00000000       0.00000000       0.00000000       0.00000000       0.00000000       0.88445252
Mo       0.00000000       0.00000000       2.90101010       0.00000000       0.00000000      -0.88445252
2
Properties=species:S:1:pos:R:3:forces:R:3 energy=-10.153808801778347 pbc="F F F"
Mo       0.00000000       0.00000000       0.00000000       0.00000000       0.00000000       0.86587358
Mo       0.00000000       0.00000000       2.96060606       0.00000000       0.00000000      -0.86587358
2
Properties=species:S:1:pos:R:3:forces:R:3 energy=-10.101215745867222 pbc="F F F"
Mo       0.00000000       0.00000000       0.00000000       0.00000000       0.00000000       0.90209013
Mo       0.00000000       0.00000000       3.02020202       0.00000000       0.00000000      -0.90209013
2
Properties=species:S:1:pos:R:3:forces:R:3 energy=-10.046534180279279 pbc="F F F"
Mo       0.00000000       0.00000000       0.00000000       0.00000000       0.00000000       0.92725986
Mo       0.00000000       0.00000000       3.07979798       0.00000000       0.00000000      -0.92725986
2
Properties=species:S:1:pos:R:3:forces:R:3 energy=-9.991494519560472 pbc="F F F"
Mo       0.00000000       0.00000000       0.00000000       0.00000000       0.00000000       0.91378105
Mo       0.00000000       0.00000000       3.13939394       0.00000000       0.00000000      -0.91378105
2
Properties=species:S:1:pos:R:3:forces:R:3 energy=-9.93806605969951 pbc="F F F"
Mo       0.00000000       0.00000000       0.00000000       0.00000000       0.00000000       0.87813926
Mo       0.00000000       0.00000000       3.19898990       0.00000000       0.00000000      -0.87813926
2
Properties=species:S:1:pos:R:3:forces:R:3 energy=-9.886702281136595 pbc="F F F"
Mo       0.00000000       0.00000000       0.00000000       0.00000000       0.00000000       0.84797794
Mo       0.00000000       0.00000000       3.25858586       0.00000000       0.00000000      -0.84797794
2
Properties=species:S:1:pos:R:3:forces:R:3 energy=-9.836734191153717 pbc="F F F"
Mo       0.00000000       0.00000000       0.00000000       0.00000000       0.00000000       0.82996923
Mo       0.00000000       0.00000000       3.31818182       0.00000000       0.00000000      -0.82996923
2
Properties=species:S:1:pos:R:3:forces:R:3 energy=-9.78789268196418 pbc="F F F"
Mo       0.00000000       0.00000000       0.00000000       0.00000000       0.00000000       0.80591834
Mo       0.00000000       0.00000000       3.37777778       0.00000000       0.00000000      -0.80591834
2
Properties=species:S:1:pos:R:3:forces:R:3 energy=-9.741279795727188 pbc="F F F"
Mo       0.00000000       0.00000000       0.00000000       0.00000000       0.00000000       0.75201648
Mo       0.00000000       0.00000000       3.43737374       0.00000000       0.00000000      -0.75201648
2
Properties=species:S:1:pos:R:3:forces:R:3 energy=-9.699060157089678 pbc="F F F"
Mo       0.00000000       0.00000000       0.00000000       0.00000000       0.00000000       0.65838903
Mo       0.00000000       0.00000000       3.49696970       0.00000000       0.00000000      -0.65838903
2
Properties=species:S:1:pos:R:3:forces:R:3 energy=-9.663439107893954 pbc="F F F"
Mo       0.00000000       0.00000000       0.00000000       0.00000000       0.00000000       0.53315431
Mo       0.00000000       0.00000000       3.55656566       0.00000000       0.00000000      -0.53315431
2
Properties=species:S:1:pos:R:3:forces:R:3 energy=-9.6357701847474 pbc="F F F"
Mo       0.00000000       0.00000000       0.00000000       0.00000000       0.00000000       0.39506972
Mo       0.00000000       0.00000000       3.61616162       0.00000000       0.00000000      -0.39506972
2
Properties=species:S:1:pos:R:3:forces:R:3 energy=-9.61616821536199 pbc="F F F"
Mo       0.00000000       0.00000000       0.00000000       0.00000000       0.00000000       0.26610810
Mo       0.00000000       0.00000000       3.67575758       0.00000000       0.00000000      -0.26610810
2
Properties=species:S:1:pos:R:3:forces:R:3 energy=-9.60345615354704 pbc="F F F"
Mo       0.00000000       0.00000000       0.00000000       0.00000000       0.00000000       0.16696981
Mo       0.00000000       0.00000000       3.73535354       0.00000000       0.00000000      -0.16696981
2
Properties=species:S:1:pos:R:3:forces:R:3 energy=-9.595363829941336 pbc="F F F"
Mo       0.00000000       0.00000000       0.00000000       0.00000000       0.00000000       0.11296549
Mo       0.00000000       0.00000000       3.79494949       0.00000000       0.00000000      -0.11296549
2
Properties=species:S:1:pos:R:3:forces:R:3 energy=-9.58896254239742 pbc="F F F"
Mo       0.00000000       0.00000000       0.00000000       0.00000000       0.00000000       0.11042360
Mo       0.00000000       0.00000000       3.85454545       0.00000000       0.00000000      -0.11042360
2
Properties=species:S:1:pos:R:3:forces:R:3 energy=-9.581249300213782 pbc="F F F"
Mo       0.00000000       0.00000000       0.00000000       0.00000000       0.00000000       0.15557507
Mo       0.00000000       0.00000000       3.91414141       0.00000000       0.00000000      -0.15557507
2
Properties=species:S:1:pos:R:3:forces:R:3 energy=-9.569708044126985 pbc="F F F"
Mo       0.00000000       0.00000000       0.00000000       0.00000000       0.00000000       0.23633689
Mo       0.00000000       0.00000000       3.97373737       0.00000000       0.00000000      -0.23633689
2
Properties=species:S:1:pos:R:3:forces:R:3 energy=-9.55270787970265 pbc="F F F"
Mo       0.00000000       0.00000000       0.00000000       0.00000000       0.00000000       0.33580905
Mo       0.00000000       0.00000000       4.03333333       0.00000000       0.00000000      -0.33580905
2
Properties=species:S:1:pos:R:3:forces:R:3 energy=-9.52966677352873 pbc="F F F"
Mo       0.00000000       0.00000000       0.00000000       0.00000000       0.00000000       0.43616778
Mo       0.00000000       0.00000000       4.09292929       0.00000000       0.00000000      -0.43616778
2
Properties=species:S:1:pos:R:3:forces:R:3 energy=-9.50101256661014 pbc="F F F"
Mo       0.00000000       0.00000000       0.00000000       0.00000000       0.00000000       0.52191865
Mo       0.00000000       0.00000000       4.15252525       0.00000000       0.00000000      -0.52191865
2
Properties=species:S:1:pos:R:3:forces:R:3 energy=-9.467971303020022 pbc="F F F"
Mo       0.00000000       0.00000000       0.00000000       0.00000000       0.00000000       0.58203334
Mo       0.00000000       0.00000000       4.21212121       0.00000000       0.00000000      -0.58203334
2
Properties=species:S:1:pos:R:3:forces:R:3 energy=-9.432264731407757 pbc="F F F"
Mo       0.00000000       0.00000000       0.00000000       0.00000000       0.00000000       0.61081845
Mo       0.00000000       0.00000000       4.27171717       0.00000000       0.00000000      -0.61081845
2
Properties=species:S:1:pos:R:3:forces:R:3 energy=-9.395804213557273 pbc="F F F"
Mo       0.00000000       0.00000000       0.00000000       0.00000000       0.00000000       0.60766494
Mo       0.00000000       0.00000000       4.33131313       0.00000000       0.00000000      -0.60766494
2
Properties=species:S:1:pos:R:3:forces:R:3 energy=-9.360405411039677 pbc="F F F"
Mo       0.00000000       0.00000000       0.00000000       0.00000000       0.00000000       0.57597345
Mo       0.00000000       0.00000000       4.39090909       0.00000000       0.00000000      -0.57597345
2
Properties=species:S:1:pos:R:3:forces:R:3 energy=-9.32760314568299 pbc="F F F"
Mo       0.00000000       0.00000000       0.00000000       0.00000000       0.00000000       0.52162033
Mo       0.00000000       0.00000000       4.45050505       0.00000000       0.00000000      -0.52162033
2
Properties=species:S:1:pos:R:3:forces:R:3 energy=-9.298547366708291 pbc="F F F"
Mo       0.00000000       0.00000000       0.00000000       0.00000000       0.00000000       0.45139167
Mo       0.00000000       0.00000000       4.51010101       0.00000000       0.00000000      -0.45139167
2
Properties=species:S:1:pos:R:3:forces:R:3 energy=-9.27398666583362 pbc="F F F"
Mo       0.00000000       0.00000000       0.00000000       0.00000000       0.00000000       0.37174201
Mo       0.00000000       0.00000000       4.56969697       0.00000000       0.00000000      -0.37174201
2
Properties=species:S:1:pos:R:3:forces:R:3 energy=-9.254315973661093 pbc="F F F"
Mo       0.00000000       0.00000000       0.00000000       0.00000000       0.00000000       0.28815484
Mo       0.00000000       0.00000000       4.62929293       0.00000000       0.00000000      -0.28815484
2
Properties=species:S:1:pos:R:3:forces:R:3 energy=-9.239632528686295 pbc="F F F"
Mo       0.00000000       0.00000000       0.00000000       0.00000000       0.00000000       0.20500281
Mo       0.00000000       0.00000000       4.68888889       0.00000000       0.00000000      -0.20500281
2
Properties=species:S:1:pos:R:3:forces:R:3 energy=-9.22980255213704 pbc="F F F"
Mo       0.00000000       0.00000000       0.00000000       0.00000000       0.00000000       0.12578076
Mo       0.00000000       0.00000000       4.74848485       0.00000000       0.00000000      -0.12578076
2
Properties=species:S:1:pos:R:3:forces:R:3 energy=-9.224502027885789 pbc="F F F"
Mo       0.00000000       0.00000000       0.00000000       0.00000000       0.00000000       0.05350383
Mo       0.00000000       0.00000000       4.80808081       0.00000000       0.00000000      -0.05350383
2
Properties=species:S:1:pos:R:3:forces:R:3 energy=-9.22323201192387 pbc="F F F"
Mo       0.00000000       0.00000000       0.00000000       0.00000000       0.00000000      -0.00902795
Mo       0.00000000       0.00000000       4.86767677       0.00000000       0.00000000       0.00902795
2
Properties=species:S:1:pos:R:3:forces:R:3 energy=-9.22533077986963 pbc="F F F"
Mo       0.00000000       0.00000000       0.00000000       0.00000000       0.00000000      -0.05910618
Mo       0.00000000       0.00000000       4.92727273       0.00000000       0.00000000       0.05910618
2
Properties=species:S:1:pos:R:3:forces:R:3 energy=-9.229980486849552 pbc="F F F"
Mo       0.00000000       0.00000000       0.00000000       0.00000000       0.00000000      -0.09427892
Mo       0.00000000       0.00000000       4.98686869       0.00000000       0.00000000       0.09427892
2
Properties=species:S:1:pos:R:3:forces:R:3 energy=-9.236233838700885 pbc="F F F"
Mo       0.00000000       0.00000000       0.00000000       0.00000000       0.00000000      -0.11271451
Mo       0.00000000       0.00000000       5.04646465       0.00000000       0.00000000       0.11271451
2
Properties=species:S:1:pos:R:3:forces:R:3 energy=-9.243067364684837 pbc="F F F"
Mo       0.00000000       0.00000000       0.00000000       0.00000000       0.00000000      -0.11372031
Mo       0.00000000       0.00000000       5.10606061       0.00000000       0.00000000       0.11372031
2
Properties=species:S:1:pos:R:3:forces:R:3 energy=-9.249462609684173 pbc="F F F"
Mo       0.00000000       0.00000000       0.00000000       0.00000000       0.00000000      -0.09833843
Mo       0.00000000       0.00000000       5.16565657       0.00000000       0.00000000       0.09833843
2
Properties=species:S:1:pos:R:3:forces:R:3 energy=-9.254532925369967 pbc="F F F"
Mo       0.00000000       0.00000000       0.00000000       0.00000000       0.00000000      -0.07018650
Mo       0.00000000       0.00000000       5.22525253       0.00000000       0.00000000       0.07018650
2
Properties=species:S:1:pos:R:3:forces:R:3 energy=-9.25771416705102 pbc="F F F"
Mo       0.00000000       0.00000000       0.00000000       0.00000000       0.00000000      -0.03646712
Mo       0.00000000       0.00000000       5.28484848       0.00000000       0.00000000       0.03646712
2
Properties=species:S:1:pos:R:3:forces:R:3 energy=-9.258972762569407 pbc="F F F"
Mo       0.00000000       0.00000000       0.00000000       0.00000000       0.00000000      -0.00733316
Mo       0.00000000       0.00000000       5.34444444       0.00000000       0.00000000       0.00733316
2
Properties=species:S:1:pos:R:3:forces:R:3 energy=-9.258806612121816 pbc="F F F"
Mo       0.00000000       0.00000000       0.00000000       0.00000000       0.00000000       0.01141334
Mo       0.00000000       0.00000000       5.40404040       0.00000000       0.00000000      -0.01141334
2
Properties=species:S:1:pos:R:3:forces:R:3 energy=-9.257658692596564 pbc="F F F"
Mo       0.00000000       0.00000000       0.00000000       0.00000000       0.00000000       0.02792853
Mo       0.00000000       0.00000000       5.46363636       0.00000000       0.00000000      -0.02792853
2
Properties=species:S:1:pos:R:3:forces:R:3 energy=-9.255343937323287 pbc="F F F"
Mo       0.00000000       0.00000000       0.00000000       0.00000000       0.00000000       0.05027167
Mo       0.00000000       0.00000000       5.52323232       0.00000000       0.00000000      -0.05027167
2
Properties=species:S:1:pos:R:3:forces:R:3 energy=-9.251771262565143 pbc="F F F"
Mo       0.00000000       0.00000000       0.00000000       0.00000000       0.00000000       0.06764120
Mo       0.00000000       0.00000000       5.58282828       0.00000000       0.00000000      -0.06764120
2
Properties=species:S:1:pos:R:3:forces:R:3 energy=-9.247493837599357 pbc="F F F"
Mo       0.00000000       0.00000000       0.00000000       0.00000000       0.00000000       0.07527305
Mo       0.00000000       0.00000000       5.64242424       0.00000000       0.00000000      -0.07527305
2
Properties=species:S:1:pos:R:3:forces:R:3 energy=-9.242662077030715 pbc="F F F"
Mo       0.00000000       0.00000000       0.00000000       0.00000000       0.00000000       0.08936040
Mo       0.00000000       0.00000000       5.70202020       0.00000000       0.00000000      -0.08936040
2
Properties=species:S:1:pos:R:3:forces:R:3 energy=-9.236615512533636 pbc="F F F"
Mo       0.00000000       0.00000000       0.00000000       0.00000000       0.00000000       0.11330912
Mo       0.00000000       0.00000000       5.76161616       0.00000000       0.00000000      -0.11330912
2
Properties=species:S:1:pos:R:3:forces:R:3 energy=-9.229642328301592 pbc="F F F"
Mo       0.00000000       0.00000000       0.00000000       0.00000000       0.00000000       0.11367899
Mo       0.00000000       0.00000000       5.82121212       0.00000000       0.00000000      -0.11367899
2
Properties=species:S:1:pos:R:3:forces:R:3 energy=-9.223874972103989 pbc="F F F"
Mo       0.00000000       0.00000000       0.00000000       0.00000000       0.00000000       0.07608726
Mo       0.00000000       0.00000000       5.88080808       0.00000000       0.00000000      -0.07608726
2
Properties=species:S:1:pos:R:3:forces:R:3 energy=-9.220672322455453 pbc="F F F"
Mo       0.00000000       0.00000000       0.00000000       0.00000000       0.00000000       0.03264783
Mo       0.00000000       0.00000000       5.94040404       0.00000000       0.00000000      -0.03264783
2
Properties=species:S:1:pos:R:3:forces:R:3 energy=-9.219447681485677 pbc="F F F"
Mo       0.00000000       0.00000000       0.00000000       0.00000000       0.00000000       0.01437535
Mo       0.00000000       0.00000000       6.00000000       0.00000000       0.00000000      -0.01437535
