2
Properties=species:S:1:pos:R:3:forces:R:3 energy=755.5375196630703 pbc="F F F"
N        0.00000000       0.00000000       0.00000000       0.00000000       0.00000000   -6322.28955078
N        0.00000000       0.00000000       0.18000000       0.00000000       0.00000000    6322.28955078
2
Properties=species:S:1:pos:R:3:forces:R:3 energy=504.0529005224453 pbc="F F F"
N        0.00000000       0.00000000       0.00000000       0.00000000       0.00000000   -2914.40087891
N        0.00000000       0.00000000       0.23878788       0.00000000       0.00000000    2914.40087891
2
Properties=species:S:1:pos:R:3:forces:R:3 energy=368.05506727366003 pbc="F F F"
N        0.00000000       0.00000000       0.00000000       0.00000000       0.00000000   -1925.27673340
N        0.00000000       0.00000000       0.29757576       0.00000000       0.00000000    1925.27673340
2
Properties=species:S:1:pos:R:3:forces:R:3 energy=261.26673720345457 pbc="F F F"
N        0.00000000       0.00000000       0.00000000       0.00000000       0.00000000   -1861.34802246
N        0.00000000       0.00000000       0.35636364       0.00000000       0.00000000    1861.34802246
2
Properties=species:S:1:pos:R:3:forces:R:3 energy=210.1705000366765 pbc="F F F"
N        0.00000000       0.00000000       0.00000000       0.00000000       0.00000000    -801.91876221
N        0.00000000       0.00000000       0.41515152       0.00000000       0.00000000     801.91876221
2
Properties=species:S:1:pos:R:3:forces:R:3 energy=159.20971515624532 pbc="F F F"
N        0.00000000       0.00000000       0.00000000       0.00000000       0.00000000    -854.91510010
N        0.00000000       0.00000000       0.47393939       0.00000000       0.00000000     854.91510010
2
Properties=species:S:1:pos:R:3:forces:R:3 energy=111.38497766918974 pbc="F F F"
N        0.00000000       0.00000000       0.00000000       0.00000000       0.00000000    -754.63897705
N        0.00000000       0.00000000       0.53272727       0.00000000       0.00000000     754.63897705
2
Properties=species:S:1:pos:R:3:forces:R:3 energy=70.14541478703053 pbc="F F F"
N        0.00000000       0.00000000       0.00000000       0.00000000       0.00000000    -618.15161133
N        0.00000000       0.00000000       0.59151515       0.00000000       0.00000000     618.15161133
2
Properties=species:S:1:pos:R:3:forces:R:3 energy=40.711245192765595 pbc="F F F"
N        0.00000000       0.00000000       0.00000000       0.00000000       0.00000000    -401.47174072
N        0.00000000       0.00000000       0.65030303       0.00000000       0.00000000     401.47174072
2
Properties=species:S:1:pos:R:3:forces:R:3 energy=21.084683350627802 pbc="F F F"
N        0.00000000       0.00000000       0.00000000       0.00000000       0.00000000    -278.71789551
N        0.00000000       0.00000000       0.70909091       0.00000000       0.00000000     278.71789551
2
Properties=species:S:1:pos:R:3:forces:R:3 energy=7.063475482494926 pbc="F F F"
N        0.00000000       0.00000000       0.00000000       0.00000000       0.00000000    -200.25776672
N        0.00000000       0.00000000       0.76787879       0.00000000       0.00000000     200.25776672
2
Properties=species:S:1:pos:R:3:forces:R:3 energy=-2.842821824290021 pbc="F F F"
N        0.00000000       0.00000000       0.00000000       0.00000000       0.00000000    -138.61706543
N        0.00000000       0.00000000       0.82666667       0.00000000       0.00000000     138.61706543
2
Properties=species:S:1:pos:R:3:forces:R:3 energy=-9.311585484792923 pbc="F F F"
N        0.00000000       0.00000000       0.00000000       0.00000000       0.00000000     -83.73267365
N        0.00000000       0.00000000       0.88545455       0.00000000       0.00000000      83.73267365
2
Properties=species:S:1:pos:R:3:forces:R:3 energy=-13.096242681349121 pbc="F F F"
N        0.00000000       0.00000000       0.00000000       0.00000000       0.00000000     -48.15926361
N        0.00000000       0.00000000       0.94424242       0.00000000       0.00000000      48.15926361
2
Properties=species:S:1:pos:R:3:forces:R:3 energy=-15.214340199210756 pbc="F F F"
N        0.00000000       0.00000000       0.00000000       0.00000000       0.00000000     -25.22181702
N        0.00000000       0.00000000       1.00303030       0.00000000       0.00000000      25.22181702
2
Properties=species:S:1:pos:R:3:forces:R:3 energy=-16.195996855509595 pbc="F F F"
N        0.00000000       0.00000000       0.00000000       0.00000000       0.00000000      -9.22919464
N        0.00000000       0.00000000       1.06181818       0.00000000       0.00000000       9.22919464
2
Properties=species:S:1:pos:R:3:forces:R:3 energy=-16.40894358859075 pbc="F F F"
N        0.00000000       0.00000000       0.00000000       0.00000000       0.00000000       1.19522917
N        0.00000000       0.00000000       1.12060606       0.00000000       0.00000000      -1.19522917
2
Properties=species:S:1:pos:R:3:forces:R:3 energy=-16.133112247902638 pbc="F F F"
N        0.00000000       0.00000000       0.00000000       0.00000000       0.00000000       7.64136648
N        0.00000000       0.00000000       1.17939394       0.00000000       0.00000000      -7.64136648
2
Properties=species:S:1:pos:R:3:forces:R:3 energy=-15.56395247564532 pbc="F F F"
N        0.00000000       0.00000000       0.00000000       0.00000000       0.00000000      11.34707069
N        0.00000000       0.00000000       1.23818182       0.00000000       0.00000000     -11.34707069
2
Properties=species:S:1:pos:R:3:forces:R:3 energy=-14.835729982991575 pbc="F F F"
N        0.00000000       0.00000000       0.00000000       0.00000000       0.00000000      13.16798687
N        0.00000000       0.00000000       1.29696970       0.00000000       0.00000000     -13.16798687
2
Properties=species:S:1:pos:R:3:forces:R:3 energy=-14.040939605452262 pbc="F F F"
N        0.00000000       0.00000000       0.00000000       0.00000000       0.00000000      13.70012093
N        0.00000000       0.00000000       1.35575758       0.00000000       0.00000000     -13.70012093
2
Properties=species:S:1:pos:R:3:forces:R:3 energy=-13.240060516654385 pbc="F F F"
N        0.00000000       0.00000000       0.00000000       0.00000000       0.00000000      13.45889950
N        0.00000000       0.00000000       1.41454545       0.00000000       0.00000000     -13.45889950
2
Properties=species:S:1:pos:R:3:forces:R:3 energy=-12.463985383336748 pbc="F F F"
N        0.00000000       0.00000000       0.00000000       0.00000000       0.00000000      12.93307590
N        0.00000000       0.00000000       1.47333333       0.00000000       0.00000000     -12.93307590
2
Properties=species:S:1:pos:R:3:forces:R:3 energy=-11.718848095990632 pbc="F F F"
N        0.00000000       0.00000000       0.00000000       0.00000000       0.00000000      12.42042637
N        0.00000000       0.00000000       1.53212121       0.00000000       0.00000000     -12.42042637
2
Properties=species:S:1:pos:R:3:forces:R:3 energy=-11.006652200490041 pbc="F F F"
N        0.00000000       0.00000000       0.00000000       0.00000000       0.00000000      11.74391079
N        0.00000000       0.00000000       1.59090909       0.00000000       0.00000000     -11.74391079
2
Properties=species:S:1:pos:R:3:forces:R:3 energy=-10.349036686812076 pbc="F F F"
N        0.00000000       0.00000000       0.00000000       0.00000000       0.00000000      10.53400803
N        0.00000000       0.00000000       1.64969697       0.00000000       0.00000000     -10.53400803
2
Properties=species:S:1:pos:R:3:forces:R:3 energy=-9.773780132753249 pbc="F F F"
N        0.00000000       0.00000000       0.00000000       0.00000000       0.00000000       9.05565262
N        0.00000000       0.00000000       1.70848485       0.00000000       0.00000000      -9.05565262
2
Properties=species:S:1:pos:R:3:forces:R:3 energy=-9.274360151967695 pbc="F F F"
N        0.00000000       0.00000000       0.00000000       0.00000000       0.00000000       8.06360817
N        0.00000000       0.00000000       1.76727273       0.00000000       0.00000000      -8.06360817
2
Properties=species:S:1:pos:R:3:forces:R:3 energy=-8.810456348569357 pbc="F F F"
N        0.00000000       0.00000000       0.00000000       0.00000000       0.00000000       7.82193661
N        0.00000000       0.00000000       1.82606061       0.00000000       0.00000000      -7.82193661
2
Properties=species:S:1:pos:R:3:forces:R:3 energy=-8.348741367364788 pbc="F F F"
N        0.00000000       0.00000000       0.00000000       0.00000000       0.00000000       7.87767935
N        0.00000000       0.00000000       1.88484848       0.00000000       0.00000000      -7.87767935
2
Properties=species:S:1:pos:R:3:forces:R:3 energy=-7.891330178951397 pbc="F F F"
N        0.00000000       0.00000000       0.00000000       0.00000000       0.00000000       7.58438921
N        0.00000000       0.00000000       1.94363636       0.00000000       0.00000000      -7.58438921
2
Properties=species:S:1:pos:R:3:forces:R:3 energy=-7.470053259590422 pbc="F F F"
N        0.00000000       0.00000000       0.00000000       0.00000000       0.00000000       6.64443874
N        0.00000000       0.00000000       2.00242424       0.00000000       0.00000000      -6.64443874
2
Properties=species:S:1:pos:R:3:forces:R:3 energy=-7.11862735242739 pbc="F F F"
N        0.00000000       0.00000000       0.00000000       0.00000000       0.00000000       5.27745199
N        0.00000000       0.00000000       2.06121212       0.00000000       0.00000000      -5.27745199
2
Properties=species:S:1:pos:R:3:forces:R:3 energy=-6.8491346656273855 pbc="F F F"
N        0.00000000       0.00000000       0.00000000       0.00000000       0.00000000       3.92491984
N        0.00000000       0.00000000       2.12000000       0.00000000       0.00000000      -3.92491984
2
Properties=species:S:1:pos:R:3:forces:R:3 energy=-6.651311165187505 pbc="F F F"
N        0.00000000       0.00000000       0.00000000       0.00000000       0.00000000       2.86101365
N        0.00000000       0.00000000       2.17878788       0.00000000       0.00000000      -2.86101365
2
Properties=species:S:1:pos:R:3:forces:R:3 energy=-6.506627926255655 pbc="F F F"
N        0.00000000       0.00000000       0.00000000       0.00000000       0.00000000       2.10588646
N        0.00000000       0.00000000       2.23757576       0.00000000       0.00000000      -2.10588646
2
Properties=species:S:1:pos:R:3:forces:R:3 energy=-6.39950175669524 pbc="F F F"
N        0.00000000       0.00000000       0.00000000       0.00000000       0.00000000       1.56621349
N        0.00000000       0.00000000       2.29636364       0.00000000       0.00000000      -1.56621349
2
Properties=species:S:1:pos:R:3:forces:R:3 energy=-6.319946797359823 pbc="F F F"
N        0.00000000       0.00000000       0.00000000       0.00000000       0.00000000       1.15725267
N        0.00000000       0.00000000       2.35515152       0.00000000       0.00000000      -1.15725267
2
Properties=species:S:1:pos:R:3:forces:R:3 energy=-6.261778012397361 pbc="F F F"
N        0.00000000       0.00000000       0.00000000       0.00000000       0.00000000       0.83384895
N        0.00000000       0.00000000       2.41393939       0.00000000       0.00000000      -0.83384895
2
Properties=species:S:1:pos:R:3:forces:R:3 energy=-6.22059981868105 pbc="F F F"
N        0.00000000       0.00000000       0.00000000       0.00000000       0.00000000       0.57736528
N        0.00000000       0.00000000       2.47272727       0.00000000       0.00000000      -0.57736528
2
Properties=species:S:1:pos:R:3:forces:R:3 energy=-6.192748870433447 pbc="F F F"
N        0.00000000       0.00000000       0.00000000       0.00000000       0.00000000       0.37931833
N        0.00000000       0.00000000       2.53151515       0.00000000       0.00000000      -0.37931833
2
Properties=species:S:1:pos:R:3:forces:R:3 energy=-6.174989574110372 pbc="F F F"
N        0.00000000       0.00000000       0.00000000       0.00000000       0.00000000       0.23287031
N        0.00000000       0.00000000       2.59030303       0.00000000       0.00000000      -0.23287031
2
Properties=species:S:1:pos:R:3:forces:R:3 energy=-6.164513731149036 pbc="F F F"
N        0.00000000       0.00000000       0.00000000       0.00000000       0.00000000       0.13004605
N        0.00000000       0.00000000       2.64909091       0.00000000       0.00000000      -0.13004605
2
Properties=species:S:1:pos:R:3:forces:R:3 energy=-6.1590245500069045 pbc="F F F"
N        0.00000000       0.00000000       0.00000000       0.00000000       0.00000000       0.06164930
N        0.00000000       0.00000000       2.70787879       0.00000000       0.00000000      -0.06164930
2
Properties=species:S:1:pos:R:3:forces:R:3 energy=-6.156775800661649 pbc="F F F"
N        0.00000000       0.00000000       0.00000000       0.00000000       0.00000000       0.01823972
N        0.00000000       0.00000000       2.76666667       0.00000000       0.00000000      -0.01823972
2
Properties=species:S:1:pos:R:3:forces:R:3 energy=-6.1565585106880425 pbc="F F F"
N        0.00000000       0.00000000       0.00000000       0.00000000       0.00000000      -0.00873024
N        0.00000000       0.00000000       2.82545455       0.00000000       0.00000000       0.00873024
2
Properties=species:S:1:pos:R:3:forces:R:3 energy=-6.1576151504086045 pbc="F F F"
N        0.00000000       0.00000000       0.00000000       0.00000000       0.00000000      -0.02605360
N        0.00000000       0.00000000       2.88424242       0.00000000       0.00000000       0.02605360
2
Properties=species:S:1:pos:R:3:forces:R:3 energy=-6.159524734145398 pbc="F F F"
N        0.00000000       0.00000000       0.00000000       0.00000000       0.00000000      -0.03835478
N        0.00000000       0.00000000       2.94303030       0.00000000       0.00000000       0.03835478
2
Properties=species:S:1:pos:R:3:forces:R:3 energy=-6.16207739541636 pbc="F F F"
N        0.00000000       0.00000000       0.00000000       0.00000000       0.00000000      -0.04817463
N        0.00000000       0.00000000       3.00181818       0.00000000       0.00000000       0.04817463
2
Properties=species:S:1:pos:R:3:forces:R:3 energy=-6.165158474324168 pbc="F F F"
N        0.00000000       0.00000000       0.00000000       0.00000000       0.00000000      -0.05642336
N        0.00000000       0.00000000       3.06060606       0.00000000       0.00000000       0.05642336
2
Properties=species:S:1:pos:R:3:forces:R:3 energy=-6.1686798237031075 pbc="F F F"
N        0.00000000       0.00000000       0.00000000       0.00000000       0.00000000      -0.06305707
N        0.00000000       0.00000000       3.11939394       0.00000000       0.00000000       0.06305707
2
Properties=species:S:1:pos:R:3:forces:R:3 energy=-6.172533955140237 pbc="F F F"
N        0.00000000       0.00000000       0.00000000       0.00000000       0.00000000      -0.06770417
N        0.00000000       0.00000000       3.17818182       0.00000000       0.00000000       0.06770417
2
Properties=species:S:1:pos:R:3:forces:R:3 energy=-6.176595867128469 pbc="F F F"
N        0.00000000       0.00000000       0.00000000       0.00000000       0.00000000      -0.07010148
N        0.00000000       0.00000000       3.23696970       0.00000000       0.00000000       0.07010148
2
Properties=species:S:1:pos:R:3:forces:R:3 energy=-6.180732508949829 pbc="F F F"
N        0.00000000       0.00000000       0.00000000       0.00000000       0.00000000      -0.07025768
N        0.00000000       0.00000000       3.29575758       0.00000000       0.00000000       0.07025768
2
Properties=species:S:1:pos:R:3:forces:R:3 energy=-6.184816512334461 pbc="F F F"
N        0.00000000       0.00000000       0.00000000       0.00000000       0.00000000      -0.06839027
N        0.00000000       0.00000000       3.35454545       0.00000000       0.00000000       0.06839027
2
Properties=species:S:1:pos:R:3:forces:R:3 energy=-6.188739451826173 pbc="F F F"
N        0.00000000       0.00000000       0.00000000       0.00000000       0.00000000      -0.06479393
N        0.00000000       0.00000000       3.41333333       0.00000000       0.00000000       0.06479393
2
Properties=species:S:1:pos:R:3:forces:R:3 energy=-6.192407032457325 pbc="F F F"
N        0.00000000       0.00000000       0.00000000       0.00000000       0.00000000      -0.05974749
N        0.00000000       0.00000000       3.47212121       0.00000000       0.00000000       0.05974749
2
Properties=species:S:1:pos:R:3:forces:R:3 energy=-6.19574091037833 pbc="F F F"
N        0.00000000       0.00000000       0.00000000       0.00000000       0.00000000      -0.05351739
N        0.00000000       0.00000000       3.53090909       0.00000000       0.00000000       0.05351739
2
Properties=species:S:1:pos:R:3:forces:R:3 energy=-6.198681993099867 pbc="F F F"
N        0.00000000       0.00000000       0.00000000       0.00000000       0.00000000      -0.04643825
N        0.00000000       0.00000000       3.58969697       0.00000000       0.00000000       0.04643825
2
Properties=species:S:1:pos:R:3:forces:R:3 energy=-6.201193290616397 pbc="F F F"
N        0.00000000       0.00000000       0.00000000       0.00000000       0.00000000      -0.03896429
N        0.00000000       0.00000000       3.64848485       0.00000000       0.00000000       0.03896429
2
Properties=species:S:1:pos:R:3:forces:R:3 energy=-6.203267042620949 pbc="F F F"
N        0.00000000       0.00000000       0.00000000       0.00000000       0.00000000      -0.03168290
N        0.00000000       0.00000000       3.70727273       0.00000000       0.00000000       0.03168290
2
Properties=species:S:1:pos:R:3:forces:R:3 energy=-6.204934266731645 pbc="F F F"
N        0.00000000       0.00000000       0.00000000       0.00000000       0.00000000      -0.02521120
N        0.00000000       0.00000000       3.76606061       0.00000000       0.00000000       0.02521120
2
Properties=species:S:1:pos:R:3:forces:R:3 energy=-6.206257629692991 pbc="F F F"
N        0.00000000       0.00000000       0.00000000       0.00000000       0.00000000      -0.02006201
N        0.00000000       0.00000000       3.82484848       0.00000000       0.00000000       0.02006201
2
Properties=species:S:1:pos:R:3:forces:R:3 energy=-6.207324780367173 pbc="F F F"
N        0.00000000       0.00000000       0.00000000       0.00000000       0.00000000      -0.01652379
N        0.00000000       0.00000000       3.88363636       0.00000000       0.00000000       0.01652379
2
Properties=species:S:1:pos:R:3:forces:R:3 energy=-6.208231713890521 pbc="F F F"
N        0.00000000       0.00000000       0.00000000       0.00000000       0.00000000      -0.01460859
N        0.00000000       0.00000000       3.94242424       0.00000000       0.00000000       0.01460859
2
Properties=species:S:1:pos:R:3:forces:R:3 energy=-6.209069916869122 pbc="F F F"
N        0.00000000       0.00000000       0.00000000       0.00000000       0.00000000      -0.01410449
N        0.00000000       0.00000000       4.00121212       0.00000000       0.00000000       0.01410449
2
Properties=species:S:1:pos:R:3:forces:R:3 energy=-6.20991257731309 pbc="F F F"
N        0.00000000       0.00000000       0.00000000       0.00000000       0.00000000      -0.01471694
N        0.00000000       0.00000000       4.06000000       0.00000000       0.00000000       0.01471694
2
Properties=species:S:1:pos:R:3:forces:R:3 energy=-6.210817483673377 pbc="F F F"
N        0.00000000       0.00000000       0.00000000       0.00000000       0.00000000      -0.01617198
N        0.00000000       0.00000000       4.11878788       0.00000000       0.00000000       0.01617198
2
Properties=species:S:1:pos:R:3:forces:R:3 energy=-6.211826578890889 pbc="F F F"
N        0.00000000       0.00000000       0.00000000       0.00000000       0.00000000      -0.01829106
N        0.00000000       0.00000000       4.17757576       0.00000000       0.00000000       0.01829106
2
Properties=species:S:1:pos:R:3:forces:R:3 energy=-6.21297742448515 pbc="F F F"
N        0.00000000       0.00000000       0.00000000       0.00000000       0.00000000      -0.02092122
N        0.00000000       0.00000000       4.23636364       0.00000000       0.00000000       0.02092122
2
Properties=species:S:1:pos:R:3:forces:R:3 energy=-6.21429226854169 pbc="F F F"
N        0.00000000       0.00000000       0.00000000       0.00000000       0.00000000      -0.02381134
N        0.00000000       0.00000000       4.29515152       0.00000000       0.00000000       0.02381134
2
Properties=species:S:1:pos:R:3:forces:R:3 energy=-6.215773776550366 pbc="F F F"
N        0.00000000       0.00000000       0.00000000       0.00000000       0.00000000      -0.02652891
N        0.00000000       0.00000000       4.35393939       0.00000000       0.00000000       0.02652891
2
Properties=species:S:1:pos:R:3:forces:R:3 energy=-6.21739645427618 pbc="F F F"
N        0.00000000       0.00000000       0.00000000       0.00000000       0.00000000      -0.02848539
N        0.00000000       0.00000000       4.41272727       0.00000000       0.00000000       0.02848539
2
Properties=species:S:1:pos:R:3:forces:R:3 energy=-6.219096655759743 pbc="F F F"
N        0.00000000       0.00000000       0.00000000       0.00000000       0.00000000      -0.02910184
N        0.00000000       0.00000000       4.47151515       0.00000000       0.00000000       0.02910184
2
Properties=species:S:1:pos:R:3:forces:R:3 energy=-6.220785473363681 pbc="F F F"
N        0.00000000       0.00000000       0.00000000       0.00000000       0.00000000      -0.02806392
N        0.00000000       0.00000000       4.53030303       0.00000000       0.00000000       0.02806392
2
Properties=species:S:1:pos:R:3:forces:R:3 energy=-6.222366380945479 pbc="F F F"
N        0.00000000       0.00000000       0.00000000       0.00000000       0.00000000      -0.02553270
N        0.00000000       0.00000000       4.58909091       0.00000000       0.00000000       0.02553270
2
Properties=species:S:1:pos:R:3:forces:R:3 energy=-6.223771484766866 pbc="F F F"
N        0.00000000       0.00000000       0.00000000       0.00000000       0.00000000      -0.02220527
N        0.00000000       0.00000000       4.64787879       0.00000000       0.00000000       0.02220527
2
Properties=species:S:1:pos:R:3:forces:R:3 energy=-6.224982988095552 pbc="F F F"
N        0.00000000       0.00000000       0.00000000       0.00000000       0.00000000      -0.01916909
N        0.00000000       0.00000000       4.70666667       0.00000000       0.00000000       0.01916909
2
Properties=species:S:1:pos:R:3:forces:R:3 energy=-6.2260532151980446 pbc="F F F"
N        0.00000000       0.00000000       0.00000000       0.00000000       0.00000000      -0.01754622
N        0.00000000       0.00000000       4.76545455       0.00000000       0.00000000       0.01754622
2
Properties=species:S:1:pos:R:3:forces:R:3 energy=-6.227089360866122 pbc="F F F"
N        0.00000000       0.00000000       0.00000000       0.00000000       0.00000000      -0.01810326
N        0.00000000       0.00000000       4.82424242       0.00000000       0.00000000       0.01810326
2
Properties=species:S:1:pos:R:3:forces:R:3 energy=-6.228226309708872 pbc="F F F"
N        0.00000000       0.00000000       0.00000000       0.00000000       0.00000000      -0.02091316
N        0.00000000       0.00000000       4.88303030       0.00000000       0.00000000       0.02091316
2
Properties=species:S:1:pos:R:3:forces:R:3 energy=-6.22957990244839 pbc="F F F"
N        0.00000000       0.00000000       0.00000000       0.00000000       0.00000000      -0.02530708
N        0.00000000       0.00000000       4.94181818       0.00000000       0.00000000       0.02530708
2
Properties=species:S:1:pos:R:3:forces:R:3 energy=-6.2312097473731765 pbc="F F F"
N        0.00000000       0.00000000       0.00000000       0.00000000       0.00000000      -0.03009452
N        0.00000000       0.00000000       5.00060606       0.00000000       0.00000000       0.03009452
2
Properties=species:S:1:pos:R:3:forces:R:3 energy=-6.233101575680376 pbc="F F F"
N        0.00000000       0.00000000       0.00000000       0.00000000       0.00000000      -0.03405133
N        0.00000000       0.00000000       5.05939394       0.00000000       0.00000000       0.03405133
2
Properties=species:S:1:pos:R:3:forces:R:3 energy=-6.235182019962878 pbc="F F F"
N        0.00000000       0.00000000       0.00000000       0.00000000       0.00000000      -0.03645928
N        0.00000000       0.00000000       5.11818182       0.00000000       0.00000000       0.03645928
2
Properties=species:S:1:pos:R:3:forces:R:3 energy=-6.237359622798883 pbc="F F F"
N        0.00000000       0.00000000       0.00000000       0.00000000       0.00000000      -0.03743309
N        0.00000000       0.00000000       5.17696970       0.00000000       0.00000000       0.03743309
2
Properties=species:S:1:pos:R:3:forces:R:3 energy=-6.239572995127013 pbc="F F F"
N        0.00000000       0.00000000       0.00000000       0.00000000       0.00000000      -0.03788697
N        0.00000000       0.00000000       5.23575758       0.00000000       0.00000000       0.03788697
2
Properties=species:S:1:pos:R:3:forces:R:3 energy=-6.241826101008076 pbc="F F F"
N        0.00000000       0.00000000       0.00000000       0.00000000       0.00000000      -0.03892295
N        0.00000000       0.00000000       5.29454545       0.00000000       0.00000000       0.03892295
2
Properties=species:S:1:pos:R:3:forces:R:3 energy=-6.244161553655273 pbc="F F F"
N        0.00000000       0.00000000       0.00000000       0.00000000       0.00000000      -0.04045443
N        0.00000000       0.00000000       5.35333333       0.00000000       0.00000000       0.04045443
2
Properties=species:S:1:pos:R:3:forces:R:3 energy=-6.246537588180564 pbc="F F F"
N        0.00000000       0.00000000       0.00000000       0.00000000       0.00000000      -0.03960574
N        0.00000000       0.00000000       5.41212121       0.00000000       0.00000000       0.03960574
2
Properties=species:S:1:pos:R:3:forces:R:3 energy=-6.248699792547602 pbc="F F F"
N        0.00000000       0.00000000       0.00000000       0.00000000       0.00000000      -0.03299812
N        0.00000000       0.00000000       5.47090909       0.00000000       0.00000000       0.03299812
2
Properties=species:S:1:pos:R:3:forces:R:3 energy=-6.250359442342532 pbc="F F F"
N        0.00000000       0.00000000       0.00000000       0.00000000       0.00000000      -0.02356755
N        0.00000000       0.00000000       5.52969697       0.00000000       0.00000000       0.02356755
2
Properties=species:S:1:pos:R:3:forces:R:3 energy=-6.251524423682902 pbc="F F F"
N        0.00000000       0.00000000       0.00000000       0.00000000       0.00000000      -0.01661296
N        0.00000000       0.00000000       5.58848485       0.00000000       0.00000000       0.01661296
2
Properties=species:S:1:pos:R:3:forces:R:3 energy=-6.252354752845654 pbc="F F F"
N        0.00000000       0.00000000       0.00000000       0.00000000       0.00000000      -0.01167256
N        0.00000000       0.00000000       5.64727273       0.00000000       0.00000000       0.01167256
2
Properties=species:S:1:pos:R:3:forces:R:3 energy=-6.252856918649495 pbc="F F F"
N        0.00000000       0.00000000       0.00000000       0.00000000       0.00000000      -0.00476456
N        0.00000000       0.00000000       5.70606061       0.00000000       0.00000000       0.00476456
2
Properties=species:S:1:pos:R:3:forces:R:3 energy=-6.252852411944916 pbc="F F F"
N        0.00000000       0.00000000       0.00000000       0.00000000       0.00000000       0.00491047
N        0.00000000       0.00000000       5.76484848       0.00000000       0.00000000      -0.00491047
2
Properties=species:S:1:pos:R:3:forces:R:3 energy=-6.252373023915329 pbc="F F F"
N        0.00000000       0.00000000       0.00000000       0.00000000       0.00000000       0.01006766
N        0.00000000       0.00000000       5.82363636       0.00000000       0.00000000      -0.01006766
2
Properties=species:S:1:pos:R:3:forces:R:3 energy=-6.2518282116133275 pbc="F F F"
N        0.00000000       0.00000000       0.00000000       0.00000000       0.00000000       0.00754133
N        0.00000000       0.00000000       5.88242424       0.00000000       0.00000000      -0.00754133
2
Properties=species:S:1:pos:R:3:forces:R:3 energy=-6.251533030263016 pbc="F F F"
N        0.00000000       0.00000000       0.00000000       0.00000000       0.00000000       0.00258150
N        0.00000000       0.00000000       5.94121212       0.00000000       0.00000000      -0.00258150
2
Properties=species:S:1:pos:R:3:forces:R:3 energy=-6.251467806490818 pbc="F F F"
N        0.00000000       0.00000000       0.00000000       0.00000000       0.00000000       0.00035882
N        0.00000000       0.00000000       6.00000000       0.00000000       0.00000000      -0.00035882
