2
Properties=species:S:1:pos:R:3:forces:R:3 energy=3553.943694805942 pbc="F F F"
Na       0.00000000       0.00000000       0.00000000       0.00000000       0.00000000  -72176.84375000
Na       0.00000000       0.00000000       0.10000000       0.00000000       0.00000000   72176.84375000
2
Properties=species:S:1:pos:R:3:forces:R:3 energy=1259.4600522278167 pbc="F F F"
Na       0.00000000       0.00000000       0.00000000       0.00000000       0.00000000  -19096.69335938
Na       0.00000000       0.00000000       0.15959596       0.00000000       0.00000000   19096.69335938
2
Properties=species:S:1:pos:R:3:forces:R:3 energy=557.7810361145356 pbc="F F F"
Na       0.00000000       0.00000000       0.00000000       0.00000000       0.00000000   -6915.09277344
Na       0.00000000       0.00000000       0.21919192       0.00000000       0.00000000    6915.09277344
2
Properties=species:S:1:pos:R:3:forces:R:3 energy=281.89834568484804 pbc="F F F"
Na       0.00000000       0.00000000       0.00000000       0.00000000       0.00000000   -2993.96655273
Na       0.00000000       0.00000000       0.27878788       0.00000000       0.00000000    2993.96655273
2
Properties=species:S:1:pos:R:3:forces:R:3 energy=155.63320896609804 pbc="F F F"
Na       0.00000000       0.00000000       0.00000000       0.00000000       0.00000000   -1460.07153320
Na       0.00000000       0.00000000       0.33838384       0.00000000       0.00000000    1460.07153320
2
Properties=species:S:1:pos:R:3:forces:R:3 energy=91.59238407596132 pbc="F F F"
Na       0.00000000       0.00000000       0.00000000       0.00000000       0.00000000    -773.69256592
Na       0.00000000       0.00000000       0.39797980       0.00000000       0.00000000     773.69256592
2
Properties=species:S:1:pos:R:3:forces:R:3 energy=56.68209431472485 pbc="F F F"
Na       0.00000000       0.00000000       0.00000000       0.00000000       0.00000000    -435.10870361
Na       0.00000000       0.00000000       0.45757576       0.00000000       0.00000000     435.10870361
2
Properties=species:S:1:pos:R:3:forces:R:3 energy=36.63137792091401 pbc="F F F"
Na       0.00000000       0.00000000       0.00000000       0.00000000       0.00000000    -255.75027466
Na       0.00000000       0.00000000       0.51717172       0.00000000       0.00000000     255.75027466
2
Properties=species:S:1:pos:R:3:forces:R:3 energy=24.64988111950439 pbc="F F F"
Na       0.00000000       0.00000000       0.00000000       0.00000000       0.00000000    -155.64944458
Na       0.00000000       0.00000000       0.57676768       0.00000000       0.00000000     155.64944458
2
Properties=species:S:1:pos:R:3:forces:R:3 energy=17.254871142420576 pbc="F F F"
Na       0.00000000       0.00000000       0.00000000       0.00000000       0.00000000     -97.61714935
Na       0.00000000       0.00000000       0.63636364       0.00000000       0.00000000      97.61714935
2
Properties=species:S:1:pos:R:3:forces:R:3 energy=12.553762236851947 pbc="F F F"
Na       0.00000000       0.00000000       0.00000000       0.00000000       0.00000000     -63.06159973
Na       0.00000000       0.00000000       0.69595960       0.00000000       0.00000000      63.06159973
2
Properties=species:S:1:pos:R:3:forces:R:3 energy=9.470381582043743 pbc="F F F"
Na       0.00000000       0.00000000       0.00000000       0.00000000       0.00000000     -42.13698196
Na       0.00000000       0.00000000       0.75555556       0.00000000       0.00000000      42.13698196
2
Properties=species:S:1:pos:R:3:forces:R:3 energy=7.3711127321311425 pbc="F F F"
Na       0.00000000       0.00000000       0.00000000       0.00000000       0.00000000     -29.35063362
Na       0.00000000       0.00000000       0.81515152       0.00000000       0.00000000      29.35063362
2
Properties=species:S:1:pos:R:3:forces:R:3 energy=5.875576016630943 pbc="F F F"
Na       0.00000000       0.00000000       0.00000000       0.00000000       0.00000000     -21.45731926
Na       0.00000000       0.00000000       0.87474747       0.00000000       0.00000000      21.45731926
2
Properties=species:S:1:pos:R:3:forces:R:3 energy=4.757324821227789 pbc="F F F"
Na       0.00000000       0.00000000       0.00000000       0.00000000       0.00000000     -16.41919899
Na       0.00000000       0.00000000       0.93434343       0.00000000       0.00000000      16.41919899
2
Properties=species:S:1:pos:R:3:forces:R:3 energy=3.887171811504296 pbc="F F F"
Na       0.00000000       0.00000000       0.00000000       0.00000000       0.00000000     -12.98948193
Na       0.00000000       0.00000000       0.99393939       0.00000000       0.00000000      12.98948193
2
Properties=species:S:1:pos:R:3:forces:R:3 energy=3.1873472422307034 pbc="F F F"
Na       0.00000000       0.00000000       0.00000000       0.00000000       0.00000000     -10.64788246
Na       0.00000000       0.00000000       1.05353535       0.00000000       0.00000000      10.64788246
2
Properties=species:S:1:pos:R:3:forces:R:3 energy=2.6075555426434844 pbc="F F F"
Na       0.00000000       0.00000000       0.00000000       0.00000000       0.00000000      -8.82875824
Na       0.00000000       0.00000000       1.11313131       0.00000000       0.00000000       8.82875824
2
Properties=species:S:1:pos:R:3:forces:R:3 energy=2.1371639783773797 pbc="F F F"
Na       0.00000000       0.00000000       0.00000000       0.00000000       0.00000000      -6.92992973
Na       0.00000000       0.00000000       1.17272727       0.00000000       0.00000000       6.92992973
2
Properties=species:S:1:pos:R:3:forces:R:3 energy=1.782567677906119 pbc="F F F"
Na       0.00000000       0.00000000       0.00000000       0.00000000       0.00000000      -4.98942804
Na       0.00000000       0.00000000       1.23232323       0.00000000       0.00000000       4.98942804
2
Properties=species:S:1:pos:R:3:forces:R:3 energy=1.536674195432899 pbc="F F F"
Na       0.00000000       0.00000000       0.00000000       0.00000000       0.00000000      -3.33502412
Na       0.00000000       0.00000000       1.29191919       0.00000000       0.00000000       3.33502412
2
Properties=species:S:1:pos:R:3:forces:R:3 energy=1.3749965440507368 pbc="F F F"
Na       0.00000000       0.00000000       0.00000000       0.00000000       0.00000000      -2.17834973
Na       0.00000000       0.00000000       1.35151515       0.00000000       0.00000000       2.17834973
2
Properties=species:S:1:pos:R:3:forces:R:3 energy=1.2677306544142812 pbc="F F F"
Na       0.00000000       0.00000000       0.00000000       0.00000000       0.00000000      -1.48587143
Na       0.00000000       0.00000000       1.41111111       0.00000000       0.00000000       1.48587143
2
Properties=species:S:1:pos:R:3:forces:R:3 energy=1.19091539079969 pbc="F F F"
Na       0.00000000       0.00000000       0.00000000       0.00000000       0.00000000      -1.15117657
Na       0.00000000       0.00000000       1.47070707       0.00000000       0.00000000       1.15117657
2
Properties=species:S:1:pos:R:3:forces:R:3 energy=1.1239802888897252 pbc="F F F"
Na       0.00000000       0.00000000       0.00000000       0.00000000       0.00000000      -1.13972080
Na       0.00000000       0.00000000       1.53030303       0.00000000       0.00000000       1.13972080
2
Properties=species:S:1:pos:R:3:forces:R:3 energy=1.0508431236222016 pbc="F F F"
Na       0.00000000       0.00000000       0.00000000       0.00000000       0.00000000      -1.34493434
Na       0.00000000       0.00000000       1.58989899       0.00000000       0.00000000       1.34493434
2
Properties=species:S:1:pos:R:3:forces:R:3 energy=0.9604738883388526 pbc="F F F"
Na       0.00000000       0.00000000       0.00000000       0.00000000       0.00000000      -1.70956397
Na       0.00000000       0.00000000       1.64949495       0.00000000       0.00000000       1.70956397
2
Properties=species:S:1:pos:R:3:forces:R:3 energy=0.8455877873025169 pbc="F F F"
Na       0.00000000       0.00000000       0.00000000       0.00000000       0.00000000      -2.14728069
Na       0.00000000       0.00000000       1.70909091       0.00000000       0.00000000       2.14728069
2
Properties=species:S:1:pos:R:3:forces:R:3 energy=0.705680057870967 pbc="F F F"
Na       0.00000000       0.00000000       0.00000000       0.00000000       0.00000000      -2.52930951
Na       0.00000000       0.00000000       1.76868687       0.00000000       0.00000000       2.52930951
2
Properties=species:S:1:pos:R:3:forces:R:3 energy=0.5468940184846651 pbc="F F F"
Na       0.00000000       0.00000000       0.00000000       0.00000000       0.00000000      -2.77452874
Na       0.00000000       0.00000000       1.82828283       0.00000000       0.00000000       2.77452874
2
Properties=species:S:1:pos:R:3:forces:R:3 energy=0.3777154298248908 pbc="F F F"
Na       0.00000000       0.00000000       0.00000000       0.00000000       0.00000000      -2.88333607
Na       0.00000000       0.00000000       1.88787879       0.00000000       0.00000000       2.88333607
2
Properties=species:S:1:pos:R:3:forces:R:3 energy=0.20512352962910246 pbc="F F F"
Na       0.00000000       0.00000000       0.00000000       0.00000000       0.00000000      -2.89587951
Na       0.00000000       0.00000000       1.94747475       0.00000000       0.00000000       2.89587951
2
Properties=species:S:1:pos:R:3:forces:R:3 energy=0.033848598819526746 pbc="F F F"
Na       0.00000000       0.00000000       0.00000000       0.00000000       0.00000000      -2.84226871
Na       0.00000000       0.00000000       2.00707071       0.00000000       0.00000000       2.84226871
2
Properties=species:S:1:pos:R:3:forces:R:3 energy=-0.13256200942503374 pbc="F F F"
Na       0.00000000       0.00000000       0.00000000       0.00000000       0.00000000      -2.73375964
Na       0.00000000       0.00000000       2.06666667       0.00000000       0.00000000       2.73375964
2
Properties=species:S:1:pos:R:3:forces:R:3 energy=-0.29101487506127505 pbc="F F F"
Na       0.00000000       0.00000000       0.00000000       0.00000000       0.00000000      -2.57614660
Na       0.00000000       0.00000000       2.12626263       0.00000000       0.00000000       2.57614660
2
Properties=species:S:1:pos:R:3:forces:R:3 energy=-0.4387964698332802 pbc="F F F"
Na       0.00000000       0.00000000       0.00000000       0.00000000       0.00000000      -2.37716198
Na       0.00000000       0.00000000       2.18585859       0.00000000       0.00000000       2.37716198
2
Properties=species:S:1:pos:R:3:forces:R:3 energy=-0.5737370399513413 pbc="F F F"
Na       0.00000000       0.00000000       0.00000000       0.00000000       0.00000000      -2.14718843
Na       0.00000000       0.00000000       2.24545455       0.00000000       0.00000000       2.14718843
2
Properties=species:S:1:pos:R:3:forces:R:3 energy=-0.6943679391794761 pbc="F F F"
Na       0.00000000       0.00000000       0.00000000       0.00000000       0.00000000      -1.89936042
Na       0.00000000       0.00000000       2.30505051       0.00000000       0.00000000       1.89936042
2
Properties=species:S:1:pos:R:3:forces:R:3 energy=-0.8000680146751749 pbc="F F F"
Na       0.00000000       0.00000000       0.00000000       0.00000000       0.00000000      -1.64864218
Na       0.00000000       0.00000000       2.36464646       0.00000000       0.00000000       1.64864218
2
Properties=species:S:1:pos:R:3:forces:R:3 energy=-0.8910901218448463 pbc="F F F"
Na       0.00000000       0.00000000       0.00000000       0.00000000       0.00000000      -1.40874267
Na       0.00000000       0.00000000       2.42424242       0.00000000       0.00000000       1.40874267
2
Properties=species:S:1:pos:R:3:forces:R:3 energy=-0.9683752396315183 pbc="F F F"
Na       0.00000000       0.00000000       0.00000000       0.00000000       0.00000000      -1.18857670
Na       0.00000000       0.00000000       2.48383838       0.00000000       0.00000000       1.18857670
2
Properties=species:S:1:pos:R:3:forces:R:3 energy=-1.0332081740797479 pbc="F F F"
Na       0.00000000       0.00000000       0.00000000       0.00000000       0.00000000      -0.99080926
Na       0.00000000       0.00000000       2.54343434       0.00000000       0.00000000       0.99080926
2
Properties=species:S:1:pos:R:3:forces:R:3 energy=-1.0868767300573043 pbc="F F F"
Na       0.00000000       0.00000000       0.00000000       0.00000000       0.00000000      -0.81337601
Na       0.00000000       0.00000000       2.60303030       0.00000000       0.00000000       0.81337601
2
Properties=species:S:1:pos:R:3:forces:R:3 energy=-1.1304855760369792 pbc="F F F"
Na       0.00000000       0.00000000       0.00000000       0.00000000       0.00000000      -0.65258694
Na       0.00000000       0.00000000       2.66262626       0.00000000       0.00000000       0.65258694
2
Properties=species:S:1:pos:R:3:forces:R:3 energy=-1.1649346572957506 pbc="F F F"
Na       0.00000000       0.00000000       0.00000000       0.00000000       0.00000000      -0.50566655
Na       0.00000000       0.00000000       2.72222222       0.00000000       0.00000000       0.50566655
2
Properties=species:S:1:pos:R:3:forces:R:3 energy=-1.191012067454941 pbc="F F F"
Na       0.00000000       0.00000000       0.00000000       0.00000000       0.00000000      -0.37165177
Na       0.00000000       0.00000000       2.78181818       0.00000000       0.00000000       0.37165177
2
Properties=species:S:1:pos:R:3:forces:R:3 energy=-1.2094979854774985 pbc="F F F"
Na       0.00000000       0.00000000       0.00000000       0.00000000       0.00000000      -0.25102863
Na       0.00000000       0.00000000       2.84141414       0.00000000       0.00000000       0.25102863
2
Properties=species:S:1:pos:R:3:forces:R:3 energy=-1.2212213309268367 pbc="F F F"
Na       0.00000000       0.00000000       0.00000000       0.00000000       0.00000000      -0.14493462
Na       0.00000000       0.00000000       2.90101010       0.00000000       0.00000000       0.14493462
2
Properties=species:S:1:pos:R:3:forces:R:3 energy=-1.2270811276923166 pbc="F F F"
Na       0.00000000       0.00000000       0.00000000       0.00000000       0.00000000      -0.05434264
Na       0.00000000       0.00000000       2.96060606       0.00000000       0.00000000       0.05434264
2
Properties=species:S:1:pos:R:3:forces:R:3 energy=-1.2280106717664037 pbc="F F F"
Na       0.00000000       0.00000000       0.00000000       0.00000000       0.00000000       0.02059131
Na       0.00000000       0.00000000       3.02020202       0.00000000       0.00000000      -0.02059131
2
Properties=species:S:1:pos:R:3:forces:R:3 energy=-1.2249184182843929 pbc="F F F"
Na       0.00000000       0.00000000       0.00000000       0.00000000       0.00000000       0.08088324
Na       0.00000000       0.00000000       3.07979798       0.00000000       0.00000000      -0.08088324
2
Properties=species:S:1:pos:R:3:forces:R:3 energy=-1.2186191946128504 pbc="F F F"
Na       0.00000000       0.00000000       0.00000000       0.00000000       0.00000000       0.12866062
Na       0.00000000       0.00000000       3.13939394       0.00000000       0.00000000      -0.12866062
2
Properties=species:S:1:pos:R:3:forces:R:3 energy=-1.2097767598395839 pbc="F F F"
Na       0.00000000       0.00000000       0.00000000       0.00000000       0.00000000       0.16669598
Na       0.00000000       0.00000000       3.19898990       0.00000000       0.00000000      -0.16669598
2
Properties=species:S:1:pos:R:3:forces:R:3 energy=-1.1988897404623815 pbc="F F F"
Na       0.00000000       0.00000000       0.00000000       0.00000000       0.00000000       0.19768552
Na       0.00000000       0.00000000       3.25858586       0.00000000       0.00000000      -0.19768552
2
Properties=species:S:1:pos:R:3:forces:R:3 energy=-1.1863166467586939 pbc="F F F"
Na       0.00000000       0.00000000       0.00000000       0.00000000       0.00000000       0.22346240
Na       0.00000000       0.00000000       3.31818182       0.00000000       0.00000000      -0.22346240
2
Properties=species:S:1:pos:R:3:forces:R:3 energy=-1.1723509323718286 pbc="F F F"
Na       0.00000000       0.00000000       0.00000000       0.00000000       0.00000000       0.24430947
Na       0.00000000       0.00000000       3.37777778       0.00000000       0.00000000      -0.24430947
2
Properties=species:S:1:pos:R:3:forces:R:3 energy=-1.15732790132292 pbc="F F F"
Na       0.00000000       0.00000000       0.00000000       0.00000000       0.00000000       0.25847128
Na       0.00000000       0.00000000       3.43737374       0.00000000       0.00000000      -0.25847128
2
Properties=species:S:1:pos:R:3:forces:R:3 energy=-1.1417525454159734 pbc="F F F"
Na       0.00000000       0.00000000       0.00000000       0.00000000       0.00000000       0.26206270
Na       0.00000000       0.00000000       3.49696970       0.00000000       0.00000000      -0.26206270
2
Properties=species:S:1:pos:R:3:forces:R:3 energy=-1.1264051604947305 pbc="F F F"
Na       0.00000000       0.00000000       0.00000000       0.00000000       0.00000000       0.24996547
Na       0.00000000       0.00000000       3.55656566       0.00000000       0.00000000      -0.24996547
2
Properties=species:S:1:pos:R:3:forces:R:3 energy=-1.112332133118984 pbc="F F F"
Na       0.00000000       0.00000000       0.00000000       0.00000000       0.00000000       0.21940428
Na       0.00000000       0.00000000       3.61616162       0.00000000       0.00000000      -0.21940428
2
Properties=species:S:1:pos:R:3:forces:R:3 energy=-1.1004907311847143 pbc="F F F"
Na       0.00000000       0.00000000       0.00000000       0.00000000       0.00000000       0.17750503
Na       0.00000000       0.00000000       3.67575758       0.00000000       0.00000000      -0.17750503
2
Properties=species:S:1:pos:R:3:forces:R:3 energy=-1.090974266776425 pbc="F F F"
Na       0.00000000       0.00000000       0.00000000       0.00000000       0.00000000       0.14577787
Na       0.00000000       0.00000000       3.73535354       0.00000000       0.00000000      -0.14577787
2
Properties=species:S:1:pos:R:3:forces:R:3 energy=-1.0824531934236712 pbc="F F F"
Na       0.00000000       0.00000000       0.00000000       0.00000000       0.00000000       0.14654259
Na       0.00000000       0.00000000       3.79494949       0.00000000       0.00000000      -0.14654259
2
Properties=species:S:1:pos:R:3:forces:R:3 energy=-1.0728189435725177 pbc="F F F"
Na       0.00000000       0.00000000       0.00000000       0.00000000       0.00000000       0.18126103
Na       0.00000000       0.00000000       3.85454545       0.00000000       0.00000000      -0.18126103
2
Properties=species:S:1:pos:R:3:forces:R:3 energy=-1.0605221356122672 pbc="F F F"
Na       0.00000000       0.00000000       0.00000000       0.00000000       0.00000000       0.23246250
Na       0.00000000       0.00000000       3.91414141       0.00000000       0.00000000      -0.23246250
2
Properties=species:S:1:pos:R:3:forces:R:3 energy=-1.0451377967146396 pbc="F F F"
Na       0.00000000       0.00000000       0.00000000       0.00000000       0.00000000       0.28269202
Na       0.00000000       0.00000000       3.97373737       0.00000000       0.00000000      -0.28269202
2
Properties=species:S:1:pos:R:3:forces:R:3 energy=-1.027014329721049 pbc="F F F"
Na       0.00000000       0.00000000       0.00000000       0.00000000       0.00000000       0.32375169
Na       0.00000000       0.00000000       4.03333333       0.00000000       0.00000000      -0.32375169
2
Properties=species:S:1:pos:R:3:forces:R:3 energy=-1.0067579180702748 pbc="F F F"
Na       0.00000000       0.00000000       0.00000000       0.00000000       0.00000000       0.35437915
Na       0.00000000       0.00000000       4.09292929       0.00000000       0.00000000      -0.35437915
2
Properties=species:S:1:pos:R:3:forces:R:3 energy=-0.9849547571826146 pbc="F F F"
Na       0.00000000       0.00000000       0.00000000       0.00000000       0.00000000       0.37596169
Na       0.00000000       0.00000000       4.15252525       0.00000000       0.00000000      -0.37596169
2
Properties=species:S:1:pos:R:3:forces:R:3 energy=-0.9620914430568973 pbc="F F F"
Na       0.00000000       0.00000000       0.00000000       0.00000000       0.00000000       0.39021802
Na       0.00000000       0.00000000       4.21212121       0.00000000       0.00000000      -0.39021802
2
Properties=species:S:1:pos:R:3:forces:R:3 energy=-0.9385619850131345 pbc="F F F"
Na       0.00000000       0.00000000       0.00000000       0.00000000       0.00000000       0.39851817
Na       0.00000000       0.00000000       4.27171717       0.00000000       0.00000000      -0.39851817
2
Properties=species:S:1:pos:R:3:forces:R:3 energy=-0.9146894975162758 pbc="F F F"
Na       0.00000000       0.00000000       0.00000000       0.00000000       0.00000000       0.40188438
Na       0.00000000       0.00000000       4.33131313       0.00000000       0.00000000      -0.40188438
2
Properties=species:S:1:pos:R:3:forces:R:3 energy=-0.8907425042228916 pbc="F F F"
Na       0.00000000       0.00000000       0.00000000       0.00000000       0.00000000       0.40114704
Na       0.00000000       0.00000000       4.39090909       0.00000000       0.00000000      -0.40114704
2
Properties=species:S:1:pos:R:3:forces:R:3 energy=-0.8669419060481954 pbc="F F F"
Na       0.00000000       0.00000000       0.00000000       0.00000000       0.00000000       0.39707243
Na       0.00000000       0.00000000       4.45050505       0.00000000       0.00000000      -0.39707243
2
Properties=species:S:1:pos:R:3:forces:R:3 energy=-0.8434662078899825 pbc="F F F"
Na       0.00000000       0.00000000       0.00000000       0.00000000       0.00000000       0.39039412
Na       0.00000000       0.00000000       4.51010101       0.00000000       0.00000000      -0.39039412
2
Properties=species:S:1:pos:R:3:forces:R:3 energy=-0.820448860411636 pbc="F F F"
Na       0.00000000       0.00000000       0.00000000       0.00000000       0.00000000       0.38175964
Na       0.00000000       0.00000000       4.56969697       0.00000000       0.00000000      -0.38175964
2
Properties=species:S:1:pos:R:3:forces:R:3 energy=-0.797991928473624 pbc="F F F"
Na       0.00000000       0.00000000       0.00000000       0.00000000       0.00000000       0.37166640
Na       0.00000000       0.00000000       4.62929293       0.00000000       0.00000000      -0.37166640
2
Properties=species:S:1:pos:R:3:forces:R:3 energy=-0.7761728614969212 pbc="F F F"
Na       0.00000000       0.00000000       0.00000000       0.00000000       0.00000000       0.36040115
Na       0.00000000       0.00000000       4.68888889       0.00000000       0.00000000      -0.36040115
2
Properties=species:S:1:pos:R:3:forces:R:3 energy=-0.7550558353689136 pbc="F F F"
Na       0.00000000       0.00000000       0.00000000       0.00000000       0.00000000       0.34809294
Na       0.00000000       0.00000000       4.74848485       0.00000000       0.00000000      -0.34809294
2
Properties=species:S:1:pos:R:3:forces:R:3 energy=-0.73470179037453 pbc="F F F"
Na       0.00000000       0.00000000       0.00000000       0.00000000       0.00000000       0.33484265
Na       0.00000000       0.00000000       4.80808081       0.00000000       0.00000000      -0.33484265
2
Properties=species:S:1:pos:R:3:forces:R:3 energy=-0.7151587791717708 pbc="F F F"
Na       0.00000000       0.00000000       0.00000000       0.00000000       0.00000000       0.32090563
Na       0.00000000       0.00000000       4.86767677       0.00000000       0.00000000      -0.32090563
2
Properties=species:S:1:pos:R:3:forces:R:3 energy=-0.6964550728277987 pbc="F F F"
Na       0.00000000       0.00000000       0.00000000       0.00000000       0.00000000       0.30681366
Na       0.00000000       0.00000000       4.92727273       0.00000000       0.00000000      -0.30681366
2
Properties=species:S:1:pos:R:3:forces:R:3 energy=-0.6785771218596232 pbc="F F F"
Na       0.00000000       0.00000000       0.00000000       0.00000000       0.00000000       0.29332000
Na       0.00000000       0.00000000       4.98686869       0.00000000       0.00000000      -0.29332000
2
Properties=species:S:1:pos:R:3:forces:R:3 energy=-0.6614689181740461 pbc="F F F"
Na       0.00000000       0.00000000       0.00000000       0.00000000       0.00000000       0.28113705
Na       0.00000000       0.00000000       5.04646465       0.00000000       0.00000000      -0.28113705
2
Properties=species:S:1:pos:R:3:forces:R:3 energy=-0.6450386111832322 pbc="F F F"
Na       0.00000000       0.00000000       0.00000000       0.00000000       0.00000000       0.27044314
Na       0.00000000       0.00000000       5.10606061       0.00000000       0.00000000      -0.27044314
2
Properties=species:S:1:pos:R:3:forces:R:3 energy=-0.6292206878725567 pbc="F F F"
Na       0.00000000       0.00000000       0.00000000       0.00000000       0.00000000       0.26024753
Na       0.00000000       0.00000000       5.16565657       0.00000000       0.00000000      -0.26024753
2
Properties=species:S:1:pos:R:3:forces:R:3 energy=-0.6140600648669403 pbc="F F F"
Na       0.00000000       0.00000000       0.00000000       0.00000000       0.00000000       0.24788879
Na       0.00000000       0.00000000       5.22525253       0.00000000       0.00000000      -0.24788879
2
Properties=species:S:1:pos:R:3:forces:R:3 energy=-0.5997887374201843 pbc="F F F"
Na       0.00000000       0.00000000       0.00000000       0.00000000       0.00000000       0.22994336
Na       0.00000000       0.00000000       5.28484848       0.00000000       0.00000000      -0.22994336
2
Properties=species:S:1:pos:R:3:forces:R:3 energy=-0.5867577627637444 pbc="F F F"
Na       0.00000000       0.00000000       0.00000000       0.00000000       0.00000000       0.20714542
Na       0.00000000       0.00000000       5.34444444       0.00000000       0.00000000      -0.20714542
2
Properties=species:S:1:pos:R:3:forces:R:3 energy=-0.5749691062197304 pbc="F F F"
Na       0.00000000       0.00000000       0.00000000       0.00000000       0.00000000       0.19094512
Na       0.00000000       0.00000000       5.40404040       0.00000000       0.00000000      -0.19094512
2
Properties=species:S:1:pos:R:3:forces:R:3 energy=-0.5636376991172717 pbc="F F F"
Na       0.00000000       0.00000000       0.00000000       0.00000000       0.00000000       0.19159523
Na       0.00000000       0.00000000       5.46363636       0.00000000       0.00000000      -0.19159523
2
Properties=species:S:1:pos:R:3:forces:R:3 energy=-0.5521304636215725 pbc="F F F"
Na       0.00000000       0.00000000       0.00000000       0.00000000       0.00000000       0.19241613
Na       0.00000000       0.00000000       5.52323232       0.00000000       0.00000000      -0.19241613
2
Properties=species:S:1:pos:R:3:forces:R:3 energy=-0.5410912824638882 pbc="F F F"
Na       0.00000000       0.00000000       0.00000000       0.00000000       0.00000000       0.17532179
Na       0.00000000       0.00000000       5.58282828       0.00000000       0.00000000      -0.17532179
2
Properties=species:S:1:pos:R:3:forces:R:3 energy=-0.5312971560059636 pbc="F F F"
Na       0.00000000       0.00000000       0.00000000       0.00000000       0.00000000       0.15545711
Na       0.00000000       0.00000000       5.64242424       0.00000000       0.00000000      -0.15545711
2
Properties=species:S:1:pos:R:3:forces:R:3 energy=-0.5220532385176136 pbc="F F F"
Na       0.00000000       0.00000000       0.00000000       0.00000000       0.00000000       0.15979284
Na       0.00000000       0.00000000       5.70202020       0.00000000       0.00000000      -0.15979284
2
Properties=species:S:1:pos:R:3:forces:R:3 energy=-0.5118791850773354 pbc="F F F"
Na       0.00000000       0.00000000       0.00000000       0.00000000       0.00000000       0.18120611
Na       0.00000000       0.00000000       5.76161616       0.00000000       0.00000000      -0.18120611
2
Properties=species:S:1:pos:R:3:forces:R:3 energy=-0.5011096507067863 pbc="F F F"
Na       0.00000000       0.00000000       0.00000000       0.00000000       0.00000000       0.17114867
Na       0.00000000       0.00000000       5.82121212       0.00000000       0.00000000      -0.17114867
2
Properties=species:S:1:pos:R:3:forces:R:3 energy=-0.49247503930766273 pbc="F F F"
Na       0.00000000       0.00000000       0.00000000       0.00000000       0.00000000       0.11418621
Na       0.00000000       0.00000000       5.88080808       0.00000000       0.00000000      -0.11418621
2
Properties=species:S:1:pos:R:3:forces:R:3 energy=-0.4875792387466849 pbc="F F F"
Na       0.00000000       0.00000000       0.00000000       0.00000000       0.00000000       0.05211873
Na       0.00000000       0.00000000       5.94040404       0.00000000       0.00000000      -0.05211873
2
Properties=species:S:1:pos:R:3:forces:R:3 energy=-0.4855006331944819 pbc="F F F"
Na       0.00000000       0.00000000       0.00000000       0.00000000       0.00000000       0.02602784
Na       0.00000000       0.00000000       6.00000000       0.00000000       0.00000000      -0.02602784
