2
Properties=species:S:1:pos:R:3:forces:R:3 energy=6667.20788180677 pbc="F F F"
Nb       0.00000000       0.00000000       0.00000000       0.00000000       0.00000000 -106758.39062500
Nb       0.00000000       0.00000000       0.18000000       0.00000000       0.00000000  106758.39062500
2
Properties=species:S:1:pos:R:3:forces:R:3 energy=2845.5294150098953 pbc="F F F"
Nb       0.00000000       0.00000000       0.00000000       0.00000000       0.00000000  -37414.25781250
Nb       0.00000000       0.00000000       0.23878788       0.00000000       0.00000000   37414.25781250
2
Properties=species:S:1:pos:R:3:forces:R:3 energy=1400.6039999708328 pbc="F F F"
Nb       0.00000000       0.00000000       0.00000000       0.00000000       0.00000000  -15455.86718750
Nb       0.00000000       0.00000000       0.29757576       0.00000000       0.00000000   15455.86718750
2
Properties=species:S:1:pos:R:3:forces:R:3 energy=774.2932089552078 pbc="F F F"
Nb       0.00000000       0.00000000       0.00000000       0.00000000       0.00000000   -7078.29736328
Nb       0.00000000       0.00000000       0.35636364       0.00000000       0.00000000    7078.29736328
2
Properties=species:S:1:pos:R:3:forces:R:3 energy=477.84362400694164 pbc="F F F"
Nb       0.00000000       0.00000000       0.00000000       0.00000000       0.00000000   -3480.56640625
Nb       0.00000000       0.00000000       0.41515152       0.00000000       0.00000000    3480.56640625
2
Properties=species:S:1:pos:R:3:forces:R:3 energy=328.2722434043785 pbc="F F F"
Nb       0.00000000       0.00000000       0.00000000       0.00000000       0.00000000   -1810.91979980
Nb       0.00000000       0.00000000       0.47393939       0.00000000       0.00000000    1810.91979980
2
Properties=species:S:1:pos:R:3:forces:R:3 energy=248.56129067093204 pbc="F F F"
Nb       0.00000000       0.00000000       0.00000000       0.00000000       0.00000000    -994.71728516
Nb       0.00000000       0.00000000       0.53272727       0.00000000       0.00000000     994.71728516
2
Properties=species:S:1:pos:R:3:forces:R:3 energy=203.53799056339005 pbc="F F F"
Nb       0.00000000       0.00000000       0.00000000       0.00000000       0.00000000    -582.90753174
Nb       0.00000000       0.00000000       0.59151515       0.00000000       0.00000000     582.90753174
2
Properties=species:S:1:pos:R:3:forces:R:3 energy=176.14313895484747 pbc="F F F"
Nb       0.00000000       0.00000000       0.00000000       0.00000000       0.00000000    -372.50421143
Nb       0.00000000       0.00000000       0.65030303       0.00000000       0.00000000     372.50421143
2
Properties=species:S:1:pos:R:3:forces:R:3 energy=157.70718023192694 pbc="F F F"
Nb       0.00000000       0.00000000       0.00000000       0.00000000       0.00000000    -267.48413086
Nb       0.00000000       0.00000000       0.70909091       0.00000000       0.00000000     267.48413086
2
Properties=species:S:1:pos:R:3:forces:R:3 energy=143.52737086435508 pbc="F F F"
Nb       0.00000000       0.00000000       0.00000000       0.00000000       0.00000000    -222.65843201
Nb       0.00000000       0.00000000       0.76787879       0.00000000       0.00000000     222.65843201
2
Properties=species:S:1:pos:R:3:forces:R:3 energy=130.7995116713957 pbc="F F F"
Nb       0.00000000       0.00000000       0.00000000       0.00000000       0.00000000    -215.27026367
Nb       0.00000000       0.00000000       0.82666667       0.00000000       0.00000000     215.27026367
2
Properties=species:S:1:pos:R:3:forces:R:3 energy=117.72044105096198 pbc="F F F"
Nb       0.00000000       0.00000000       0.00000000       0.00000000       0.00000000    -233.47799683
Nb       0.00000000       0.00000000       0.88545455       0.00000000       0.00000000     233.47799683
2
Properties=species:S:1:pos:R:3:forces:R:3 energy=103.28528387696927 pbc="F F F"
Nb       0.00000000       0.00000000       0.00000000       0.00000000       0.00000000    -254.53546143
Nb       0.00000000       0.00000000       0.94424242       0.00000000       0.00000000     254.53546143
2
Properties=species:S:1:pos:R:3:forces:R:3 energy=88.23200864492696 pbc="F F F"
Nb       0.00000000       0.00000000       0.00000000       0.00000000       0.00000000    -254.36190796
Nb       0.00000000       0.00000000       1.00303030       0.00000000       0.00000000     254.36190796
2
Properties=species:S:1:pos:R:3:forces:R:3 energy=73.4711912848907 pbc="F F F"
Nb       0.00000000       0.00000000       0.00000000       0.00000000       0.00000000    -249.25343323
Nb       0.00000000       0.00000000       1.06181818       0.00000000       0.00000000     249.25343323
2
Properties=species:S:1:pos:R:3:forces:R:3 energy=58.8161253235838 pbc="F F F"
Nb       0.00000000       0.00000000       0.00000000       0.00000000       0.00000000    -248.52391052
Nb       0.00000000       0.00000000       1.12060606       0.00000000       0.00000000     248.52391052
2
Properties=species:S:1:pos:R:3:forces:R:3 energy=44.484557596995735 pbc="F F F"
Nb       0.00000000       0.00000000       0.00000000       0.00000000       0.00000000    -236.81192017
Nb       0.00000000       0.00000000       1.17939394       0.00000000       0.00000000     236.81192017
2
Properties=species:S:1:pos:R:3:forces:R:3 energy=31.193281273135195 pbc="F F F"
Nb       0.00000000       0.00000000       0.00000000       0.00000000       0.00000000    -213.37165833
Nb       0.00000000       0.00000000       1.23818182       0.00000000       0.00000000     213.37165833
2
Properties=species:S:1:pos:R:3:forces:R:3 energy=19.772504309757732 pbc="F F F"
Nb       0.00000000       0.00000000       0.00000000       0.00000000       0.00000000    -171.43196106
Nb       0.00000000       0.00000000       1.29696970       0.00000000       0.00000000     171.43196106
2
Properties=species:S:1:pos:R:3:forces:R:3 energy=11.242575401472326 pbc="F F F"
Nb       0.00000000       0.00000000       0.00000000       0.00000000       0.00000000    -119.26129150
Nb       0.00000000       0.00000000       1.35575758       0.00000000       0.00000000     119.26129150
2
Properties=species:S:1:pos:R:3:forces:R:3 energy=5.462061969866667 pbc="F F F"
Nb       0.00000000       0.00000000       0.00000000       0.00000000       0.00000000     -81.21876526
Nb       0.00000000       0.00000000       1.41454545       0.00000000       0.00000000      81.21876526
2
Properties=species:S:1:pos:R:3:forces:R:3 energy=1.2986800595883068 pbc="F F F"
Nb       0.00000000       0.00000000       0.00000000       0.00000000       0.00000000     -62.52159882
Nb       0.00000000       0.00000000       1.47333333       0.00000000       0.00000000      62.52159882
2
Properties=species:S:1:pos:R:3:forces:R:3 energy=-1.99686010975793 pbc="F F F"
Nb       0.00000000       0.00000000       0.00000000       0.00000000       0.00000000     -49.81349182
Nb       0.00000000       0.00000000       1.53212121       0.00000000       0.00000000      49.81349182
2
Properties=species:S:1:pos:R:3:forces:R:3 energy=-4.579689567752328 pbc="F F F"
Nb       0.00000000       0.00000000       0.00000000       0.00000000       0.00000000     -38.40892792
Nb       0.00000000       0.00000000       1.59090909       0.00000000       0.00000000      38.40892792
2
Properties=species:S:1:pos:R:3:forces:R:3 energy=-6.568764588812183 pbc="F F F"
Nb       0.00000000       0.00000000       0.00000000       0.00000000       0.00000000     -29.73626900
Nb       0.00000000       0.00000000       1.64969697       0.00000000       0.00000000      29.73626900
2
Properties=species:S:1:pos:R:3:forces:R:3 energy=-8.118562916604109 pbc="F F F"
Nb       0.00000000       0.00000000       0.00000000       0.00000000       0.00000000     -23.22375298
Nb       0.00000000       0.00000000       1.70848485       0.00000000       0.00000000      23.22375298
2
Properties=species:S:1:pos:R:3:forces:R:3 energy=-9.315632461375241 pbc="F F F"
Nb       0.00000000       0.00000000       0.00000000       0.00000000       0.00000000     -17.57972145
Nb       0.00000000       0.00000000       1.76727273       0.00000000       0.00000000      17.57972145
2
Properties=species:S:1:pos:R:3:forces:R:3 energy=-10.19389217739854 pbc="F F F"
Nb       0.00000000       0.00000000       0.00000000       0.00000000       0.00000000     -12.38983345
Nb       0.00000000       0.00000000       1.82606061       0.00000000       0.00000000      12.38983345
2
Properties=species:S:1:pos:R:3:forces:R:3 energy=-10.786969093235845 pbc="F F F"
Nb       0.00000000       0.00000000       0.00000000       0.00000000       0.00000000      -7.93938589
Nb       0.00000000       0.00000000       1.88484848       0.00000000       0.00000000       7.93938589
2
Properties=species:S:1:pos:R:3:forces:R:3 energy=-11.14651758106588 pbc="F F F"
Nb       0.00000000       0.00000000       0.00000000       0.00000000       0.00000000      -4.45400810
Nb       0.00000000       0.00000000       1.94363636       0.00000000       0.00000000       4.45400810
2
Properties=species:S:1:pos:R:3:forces:R:3 energy=-11.328099330783285 pbc="F F F"
Nb       0.00000000       0.00000000       0.00000000       0.00000000       0.00000000      -1.85511374
Nb       0.00000000       0.00000000       2.00242424       0.00000000       0.00000000       1.85511374
2
Properties=species:S:1:pos:R:3:forces:R:3 energy=-11.37792065196551 pbc="F F F"
Nb       0.00000000       0.00000000       0.00000000       0.00000000       0.00000000       0.06532538
Nb       0.00000000       0.00000000       2.06121212       0.00000000       0.00000000      -0.06532538
2
Properties=species:S:1:pos:R:3:forces:R:3 energy=-11.329659802162743 pbc="F F F"
Nb       0.00000000       0.00000000       0.00000000       0.00000000       0.00000000       1.51261151
Nb       0.00000000       0.00000000       2.12000000       0.00000000       0.00000000      -1.51261151
2
Properties=species:S:1:pos:R:3:forces:R:3 energy=-11.206213544709907 pbc="F F F"
Nb       0.00000000       0.00000000       0.00000000       0.00000000       0.00000000       2.64419794
Nb       0.00000000       0.00000000       2.17878788       0.00000000       0.00000000      -2.64419794
2
Properties=species:S:1:pos:R:3:forces:R:3 energy=-11.023096531834952 pbc="F F F"
Nb       0.00000000       0.00000000       0.00000000       0.00000000       0.00000000       3.55264306
Nb       0.00000000       0.00000000       2.23757576       0.00000000       0.00000000      -3.55264306
2
Properties=species:S:1:pos:R:3:forces:R:3 energy=-10.792214946251677 pbc="F F F"
Nb       0.00000000       0.00000000       0.00000000       0.00000000       0.00000000       4.27096272
Nb       0.00000000       0.00000000       2.29636364       0.00000000       0.00000000      -4.27096272
2
Properties=species:S:1:pos:R:3:forces:R:3 energy=-10.524603682504338 pbc="F F F"
Nb       0.00000000       0.00000000       0.00000000       0.00000000       0.00000000       4.80228329
Nb       0.00000000       0.00000000       2.35515152       0.00000000       0.00000000      -4.80228329
2
Properties=species:S:1:pos:R:3:forces:R:3 energy=-10.231178662635044 pbc="F F F"
Nb       0.00000000       0.00000000       0.00000000       0.00000000       0.00000000       5.15049839
Nb       0.00000000       0.00000000       2.41393939       0.00000000       0.00000000      -5.15049839
2
Properties=species:S:1:pos:R:3:forces:R:3 energy=-9.922334961846174 pbc="F F F"
Nb       0.00000000       0.00000000       0.00000000       0.00000000       0.00000000       5.33002186
Nb       0.00000000       0.00000000       2.47272727       0.00000000       0.00000000      -5.33002186
2
Properties=species:S:1:pos:R:3:forces:R:3 energy=-9.6074467277231 pbc="F F F"
Nb       0.00000000       0.00000000       0.00000000       0.00000000       0.00000000       5.35901594
Nb       0.00000000       0.00000000       2.53151515       0.00000000       0.00000000      -5.35901594
2
Properties=species:S:1:pos:R:3:forces:R:3 energy=-9.294884012951309 pbc="F F F"
Nb       0.00000000       0.00000000       0.00000000       0.00000000       0.00000000       5.25348234
Nb       0.00000000       0.00000000       2.59030303       0.00000000       0.00000000      -5.25348234
2
Properties=species:S:1:pos:R:3:forces:R:3 energy=-8.992004869202388 pbc="F F F"
Nb       0.00000000       0.00000000       0.00000000       0.00000000       0.00000000       5.03422213
Nb       0.00000000       0.00000000       2.64909091       0.00000000       0.00000000      -5.03422213
2
Properties=species:S:1:pos:R:3:forces:R:3 energy=-8.704474897566639 pbc="F F F"
Nb       0.00000000       0.00000000       0.00000000       0.00000000       0.00000000       4.73919201
Nb       0.00000000       0.00000000       2.70787879       0.00000000       0.00000000      -4.73919201
2
Properties=species:S:1:pos:R:3:forces:R:3 energy=-8.435314256887759 pbc="F F F"
Nb       0.00000000       0.00000000       0.00000000       0.00000000       0.00000000       4.41662550
Nb       0.00000000       0.00000000       2.76666667       0.00000000       0.00000000      -4.41662550
2
Properties=species:S:1:pos:R:3:forces:R:3 energy=-8.185168572034614 pbc="F F F"
Nb       0.00000000       0.00000000       0.00000000       0.00000000       0.00000000       4.09350061
Nb       0.00000000       0.00000000       2.82545455       0.00000000       0.00000000      -4.09350061
2
Properties=species:S:1:pos:R:3:forces:R:3 energy=-7.954244603692478 pbc="F F F"
Nb       0.00000000       0.00000000       0.00000000       0.00000000       0.00000000       3.75840378
Nb       0.00000000       0.00000000       2.88424242       0.00000000       0.00000000      -3.75840378
2
Properties=species:S:1:pos:R:3:forces:R:3 energy=-7.743988034427021 pbc="F F F"
Nb       0.00000000       0.00000000       0.00000000       0.00000000       0.00000000       3.38784099
Nb       0.00000000       0.00000000       2.94303030       0.00000000       0.00000000      -3.38784099
2
Properties=species:S:1:pos:R:3:forces:R:3 energy=-7.556526731626119 pbc="F F F"
Nb       0.00000000       0.00000000       0.00000000       0.00000000       0.00000000       2.98763800
Nb       0.00000000       0.00000000       3.00181818       0.00000000       0.00000000      -2.98763800
2
Properties=species:S:1:pos:R:3:forces:R:3 energy=-7.39239014349356 pbc="F F F"
Nb       0.00000000       0.00000000       0.00000000       0.00000000       0.00000000       2.60452867
Nb       0.00000000       0.00000000       3.06060606       0.00000000       0.00000000      -2.60452867
2
Properties=species:S:1:pos:R:3:forces:R:3 energy=-7.248746983423328 pbc="F F F"
Nb       0.00000000       0.00000000       0.00000000       0.00000000       0.00000000       2.29962087
Nb       0.00000000       0.00000000       3.11939394       0.00000000       0.00000000      -2.29962087
2
Properties=species:S:1:pos:R:3:forces:R:3 energy=-7.119752493582609 pbc="F F F"
Nb       0.00000000       0.00000000       0.00000000       0.00000000       0.00000000       2.10810304
Nb       0.00000000       0.00000000       3.17818182       0.00000000       0.00000000      -2.10810304
2
Properties=species:S:1:pos:R:3:forces:R:3 energy=-6.998891093807894 pbc="F F F"
Nb       0.00000000       0.00000000       0.00000000       0.00000000       0.00000000       2.01722455
Nb       0.00000000       0.00000000       3.23696970       0.00000000       0.00000000      -2.01722455
2
Properties=species:S:1:pos:R:3:forces:R:3 energy=-6.881478089735412 pbc="F F F"
Nb       0.00000000       0.00000000       0.00000000       0.00000000       0.00000000       1.98264718
Nb       0.00000000       0.00000000       3.29575758       0.00000000       0.00000000      -1.98264718
2
Properties=species:S:1:pos:R:3:forces:R:3 energy=-6.765508886183467 pbc="F F F"
Nb       0.00000000       0.00000000       0.00000000       0.00000000       0.00000000       1.96253991
Nb       0.00000000       0.00000000       3.35454545       0.00000000       0.00000000      -1.96253991
2
Properties=species:S:1:pos:R:3:forces:R:3 energy=-6.650920901949039 pbc="F F F"
Nb       0.00000000       0.00000000       0.00000000       0.00000000       0.00000000       1.93313265
Nb       0.00000000       0.00000000       3.41333333       0.00000000       0.00000000      -1.93313265
2
Properties=species:S:1:pos:R:3:forces:R:3 energy=-6.53858766431857 pbc="F F F"
Nb       0.00000000       0.00000000       0.00000000       0.00000000       0.00000000       1.88521087
Nb       0.00000000       0.00000000       3.47212121       0.00000000       0.00000000      -1.88521087
2
Properties=species:S:1:pos:R:3:forces:R:3 energy=-6.429646857191083 pbc="F F F"
Nb       0.00000000       0.00000000       0.00000000       0.00000000       0.00000000       1.81811988
Nb       0.00000000       0.00000000       3.53090909       0.00000000       0.00000000      -1.81811988
2
Properties=species:S:1:pos:R:3:forces:R:3 energy=-6.325101255813569 pbc="F F F"
Nb       0.00000000       0.00000000       0.00000000       0.00000000       0.00000000       1.73684013
Nb       0.00000000       0.00000000       3.58969697       0.00000000       0.00000000      -1.73684013
2
Properties=species:S:1:pos:R:3:forces:R:3 energy=-6.225554980424158 pbc="F F F"
Nb       0.00000000       0.00000000       0.00000000       0.00000000       0.00000000       1.64941597
Nb       0.00000000       0.00000000       3.64848485       0.00000000       0.00000000      -1.64941597
2
Properties=species:S:1:pos:R:3:forces:R:3 energy=-6.1311592391524945 pbc="F F F"
Nb       0.00000000       0.00000000       0.00000000       0.00000000       0.00000000       1.56236672
Nb       0.00000000       0.00000000       3.70727273       0.00000000       0.00000000      -1.56236672
2
Properties=species:S:1:pos:R:3:forces:R:3 energy=-6.04182670878632 pbc="F F F"
Nb       0.00000000       0.00000000       0.00000000       0.00000000       0.00000000       1.47672749
Nb       0.00000000       0.00000000       3.76606061       0.00000000       0.00000000      -1.47672749
2
Properties=species:S:1:pos:R:3:forces:R:3 energy=-5.9575863830214555 pbc="F F F"
Nb       0.00000000       0.00000000       0.00000000       0.00000000       0.00000000       1.38822663
Nb       0.00000000       0.00000000       3.82484848       0.00000000       0.00000000      -1.38822663
2
Properties=species:S:1:pos:R:3:forces:R:3 energy=-5.878775140302461 pbc="F F F"
Nb       0.00000000       0.00000000       0.00000000       0.00000000       0.00000000       1.29112148
Nb       0.00000000       0.00000000       3.88363636       0.00000000       0.00000000      -1.29112148
2
Properties=species:S:1:pos:R:3:forces:R:3 energy=-5.806014084034568 pbc="F F F"
Nb       0.00000000       0.00000000       0.00000000       0.00000000       0.00000000       1.18230677
Nb       0.00000000       0.00000000       3.94242424       0.00000000       0.00000000      -1.18230677
2
Properties=species:S:1:pos:R:3:forces:R:3 energy=-5.73997243683445 pbc="F F F"
Nb       0.00000000       0.00000000       0.00000000       0.00000000       0.00000000       1.06305957
Nb       0.00000000       0.00000000       4.00121212       0.00000000       0.00000000      -1.06305957
2
Properties=species:S:1:pos:R:3:forces:R:3 energy=-5.681133795288037 pbc="F F F"
Nb       0.00000000       0.00000000       0.00000000       0.00000000       0.00000000       0.93830228
Nb       0.00000000       0.00000000       4.06000000       0.00000000       0.00000000      -0.93830228
2
Properties=species:S:1:pos:R:3:forces:R:3 energy=-5.629627258240589 pbc="F F F"
Nb       0.00000000       0.00000000       0.00000000       0.00000000       0.00000000       0.81474632
Nb       0.00000000       0.00000000       4.11878788       0.00000000       0.00000000      -0.81474632
2
Properties=species:S:1:pos:R:3:forces:R:3 energy=-5.585182878200364 pbc="F F F"
Nb       0.00000000       0.00000000       0.00000000       0.00000000       0.00000000       0.69909948
Nb       0.00000000       0.00000000       4.17757576       0.00000000       0.00000000      -0.69909948
2
Properties=species:S:1:pos:R:3:forces:R:3 energy=-5.547162280287055 pbc="F F F"
Nb       0.00000000       0.00000000       0.00000000       0.00000000       0.00000000       0.59700441
Nb       0.00000000       0.00000000       4.23636364       0.00000000       0.00000000      -0.59700441
2
Properties=species:S:1:pos:R:3:forces:R:3 energy=-5.51464350123208 pbc="F F F"
Nb       0.00000000       0.00000000       0.00000000       0.00000000       0.00000000       0.51245481
Nb       0.00000000       0.00000000       4.29515152       0.00000000       0.00000000      -0.51245481
2
Properties=species:S:1:pos:R:3:forces:R:3 energy=-5.486525594114274 pbc="F F F"
Nb       0.00000000       0.00000000       0.00000000       0.00000000       0.00000000       0.44750458
Nb       0.00000000       0.00000000       4.35393939       0.00000000       0.00000000      -0.44750458
2
Properties=species:S:1:pos:R:3:forces:R:3 energy=-5.461646001656723 pbc="F F F"
Nb       0.00000000       0.00000000       0.00000000       0.00000000       0.00000000       0.40202409
Nb       0.00000000       0.00000000       4.41272727       0.00000000       0.00000000      -0.40202409
2
Properties=species:S:1:pos:R:3:forces:R:3 energy=-5.4389174908545534 pbc="F F F"
Nb       0.00000000       0.00000000       0.00000000       0.00000000       0.00000000       0.37380236
Nb       0.00000000       0.00000000       4.47151515       0.00000000       0.00000000      -0.37380236
2
Properties=species:S:1:pos:R:3:forces:R:3 energy=-5.417432993793286 pbc="F F F"
Nb       0.00000000       0.00000000       0.00000000       0.00000000       0.00000000       0.35891885
Nb       0.00000000       0.00000000       4.53030303       0.00000000       0.00000000      -0.35891885
2
Properties=species:S:1:pos:R:3:forces:R:3 energy=-5.396551623734835 pbc="F F F"
Nb       0.00000000       0.00000000       0.00000000       0.00000000       0.00000000       0.35248017
Nb       0.00000000       0.00000000       4.58909091       0.00000000       0.00000000      -0.35248017
2
Properties=species:S:1:pos:R:3:forces:R:3 energy=-5.375923858787877 pbc="F F F"
Nb       0.00000000       0.00000000       0.00000000       0.00000000       0.00000000       0.34948441
Nb       0.00000000       0.00000000       4.64787879       0.00000000       0.00000000      -0.34948441
2
Properties=species:S:1:pos:R:3:forces:R:3 energy=-5.355478947736758 pbc="F F F"
Nb       0.00000000       0.00000000       0.00000000       0.00000000       0.00000000       0.34559557
Nb       0.00000000       0.00000000       4.70666667       0.00000000       0.00000000      -0.34559557
2
Properties=species:S:1:pos:R:3:forces:R:3 energy=-5.335367970014699 pbc="F F F"
Nb       0.00000000       0.00000000       0.00000000       0.00000000       0.00000000       0.33776277
Nb       0.00000000       0.00000000       4.76545455       0.00000000       0.00000000      -0.33776277
2
Properties=species:S:1:pos:R:3:forces:R:3 energy=-5.315872092900089 pbc="F F F"
Nb       0.00000000       0.00000000       0.00000000       0.00000000       0.00000000       0.32456374
Nb       0.00000000       0.00000000       4.82424242       0.00000000       0.00000000      -0.32456374
2
Properties=species:S:1:pos:R:3:forces:R:3 energy=-5.297308984720594 pbc="F F F"
Nb       0.00000000       0.00000000       0.00000000       0.00000000       0.00000000       0.30628836
Nb       0.00000000       0.00000000       4.88303030       0.00000000       0.00000000      -0.30628836
2
Properties=species:S:1:pos:R:3:forces:R:3 energy=-5.27992616338466 pbc="F F F"
Nb       0.00000000       0.00000000       0.00000000       0.00000000       0.00000000       0.28470111
Nb       0.00000000       0.00000000       4.94181818       0.00000000       0.00000000      -0.28470111
2
Properties=species:S:1:pos:R:3:forces:R:3 energy=-5.263845155748853 pbc="F F F"
Nb       0.00000000       0.00000000       0.00000000       0.00000000       0.00000000       0.26249877
Nb       0.00000000       0.00000000       5.00060606       0.00000000       0.00000000      -0.26249877
2
Properties=species:S:1:pos:R:3:forces:R:3 energy=-5.249016649582403 pbc="F F F"
Nb       0.00000000       0.00000000       0.00000000       0.00000000       0.00000000       0.24258228
Nb       0.00000000       0.00000000       5.05939394       0.00000000       0.00000000      -0.24258228
2
Properties=species:S:1:pos:R:3:forces:R:3 energy=-5.235231608205508 pbc="F F F"
Nb       0.00000000       0.00000000       0.00000000       0.00000000       0.00000000       0.22732714
Nb       0.00000000       0.00000000       5.11818182       0.00000000       0.00000000      -0.22732714
2
Properties=species:S:1:pos:R:3:forces:R:3 energy=-5.222171414418669 pbc="F F F"
Nb       0.00000000       0.00000000       0.00000000       0.00000000       0.00000000       0.21803281
Nb       0.00000000       0.00000000       5.17696970       0.00000000       0.00000000      -0.21803281
2
Properties=species:S:1:pos:R:3:forces:R:3 energy=-5.20948406941334 pbc="F F F"
Nb       0.00000000       0.00000000       0.00000000       0.00000000       0.00000000       0.21446143
Nb       0.00000000       0.00000000       5.23575758       0.00000000       0.00000000      -0.21446143
2
Properties=species:S:1:pos:R:3:forces:R:3 energy=-5.196876705516265 pbc="F F F"
Nb       0.00000000       0.00000000       0.00000000       0.00000000       0.00000000       0.21496254
Nb       0.00000000       0.00000000       5.29454545       0.00000000       0.00000000      -0.21496254
2
Properties=species:S:1:pos:R:3:forces:R:3 energy=-5.184176627681372 pbc="F F F"
Nb       0.00000000       0.00000000       0.00000000       0.00000000       0.00000000       0.21699756
Nb       0.00000000       0.00000000       5.35333333       0.00000000       0.00000000      -0.21699756
2
Properties=species:S:1:pos:R:3:forces:R:3 energy=-5.171456181468777 pbc="F F F"
Nb       0.00000000       0.00000000       0.00000000       0.00000000       0.00000000       0.21391891
Nb       0.00000000       0.00000000       5.41212121       0.00000000       0.00000000      -0.21391891
2
Properties=species:S:1:pos:R:3:forces:R:3 energy=-5.159321874753767 pbc="F F F"
Nb       0.00000000       0.00000000       0.00000000       0.00000000       0.00000000       0.19654620
Nb       0.00000000       0.00000000       5.47090909       0.00000000       0.00000000      -0.19654620
2
Properties=species:S:1:pos:R:3:forces:R:3 energy=-5.1484780590557495 pbc="F F F"
Nb       0.00000000       0.00000000       0.00000000       0.00000000       0.00000000       0.17233968
Nb       0.00000000       0.00000000       5.52969697       0.00000000       0.00000000      -0.17233968
2
Properties=species:S:1:pos:R:3:forces:R:3 energy=-5.139050319785524 pbc="F F F"
Nb       0.00000000       0.00000000       0.00000000       0.00000000       0.00000000       0.14818805
Nb       0.00000000       0.00000000       5.58848485       0.00000000       0.00000000      -0.14818805
2
Properties=species:S:1:pos:R:3:forces:R:3 energy=-5.131077797107914 pbc="F F F"
Nb       0.00000000       0.00000000       0.00000000       0.00000000       0.00000000       0.12329988
Nb       0.00000000       0.00000000       5.64727273       0.00000000       0.00000000      -0.12329988
2
Properties=species:S:1:pos:R:3:forces:R:3 energy=-5.124394358454715 pbc="F F F"
Nb       0.00000000       0.00000000       0.00000000       0.00000000       0.00000000       0.10705994
Nb       0.00000000       0.00000000       5.70606061       0.00000000       0.00000000      -0.10705994
2
Properties=species:S:1:pos:R:3:forces:R:3 energy=-5.117935884014528 pbc="F F F"
Nb       0.00000000       0.00000000       0.00000000       0.00000000       0.00000000       0.11746719
Nb       0.00000000       0.00000000       5.76484848       0.00000000       0.00000000      -0.11746719
2
Properties=species:S:1:pos:R:3:forces:R:3 energy=-5.110403276291109 pbc="F F F"
Nb       0.00000000       0.00000000       0.00000000       0.00000000       0.00000000       0.13497898
Nb       0.00000000       0.00000000       5.82363636       0.00000000       0.00000000      -0.13497898
2
Properties=species:S:1:pos:R:3:forces:R:3 energy=-5.103067537881784 pbc="F F F"
Nb       0.00000000       0.00000000       0.00000000       0.00000000       0.00000000       0.10611194
Nb       0.00000000       0.00000000       5.88242424       0.00000000       0.00000000      -0.10611194
2
Properties=species:S:1:pos:R:3:forces:R:3 energy=-5.098465388934916 pbc="F F F"
Nb       0.00000000       0.00000000       0.00000000       0.00000000       0.00000000       0.05070777
Nb       0.00000000       0.00000000       5.94121212       0.00000000       0.00000000      -0.05070777
2
Properties=species:S:1:pos:R:3:forces:R:3 energy=-5.096487775108989 pbc="F F F"
Nb       0.00000000       0.00000000       0.00000000       0.00000000       0.00000000       0.02468648
Nb       0.00000000       0.00000000       6.00000000       0.00000000       0.00000000      -0.02468648
