2
Properties=species:S:1:pos:R:3:forces:R:3 energy=3021.240208218362 pbc="F F F"
Ne       0.00000000       0.00000000       0.00000000       0.00000000       0.00000000  -60786.82812500
Ne       0.00000000       0.00000000       0.10000000       0.00000000       0.00000000   60786.82812500
2
Properties=species:S:1:pos:R:3:forces:R:3 energy=1080.135471890237 pbc="F F F"
Ne       0.00000000       0.00000000       0.00000000       0.00000000       0.00000000  -16268.29199219
Ne       0.00000000       0.00000000       0.15959596       0.00000000       0.00000000   16268.29199219
2
Properties=species:S:1:pos:R:3:forces:R:3 energy=479.6694074371121 pbc="F F F"
Ne       0.00000000       0.00000000       0.00000000       0.00000000       0.00000000   -5954.07812500
Ne       0.00000000       0.00000000       0.21919192       0.00000000       0.00000000    5954.07812500
2
Properties=species:S:1:pos:R:3:forces:R:3 energy=241.09512765314378 pbc="F F F"
Ne       0.00000000       0.00000000       0.00000000       0.00000000       0.00000000   -2603.73730469
Ne       0.00000000       0.00000000       0.27878788       0.00000000       0.00000000    2603.73730469
2
Properties=species:S:1:pos:R:3:forces:R:3 energy=130.8179059766241 pbc="F F F"
Ne       0.00000000       0.00000000       0.00000000       0.00000000       0.00000000   -1281.94689941
Ne       0.00000000       0.00000000       0.33838384       0.00000000       0.00000000    1281.94689941
2
Properties=species:S:1:pos:R:3:forces:R:3 energy=74.37678965074387 pbc="F F F"
Ne       0.00000000       0.00000000       0.00000000       0.00000000       0.00000000    -684.72650146
Ne       0.00000000       0.00000000       0.39797980       0.00000000       0.00000000     684.72650146
2
Properties=species:S:1:pos:R:3:forces:R:3 energy=43.41570339378561 pbc="F F F"
Ne       0.00000000       0.00000000       0.00000000       0.00000000       0.00000000    -386.42266846
Ne       0.00000000       0.00000000       0.45757576       0.00000000       0.00000000     386.42266846
2
Properties=species:S:1:pos:R:3:forces:R:3 energy=25.634775765798864 pbc="F F F"
Ne       0.00000000       0.00000000       0.00000000       0.00000000       0.00000000    -225.93716431
Ne       0.00000000       0.00000000       0.51717172       0.00000000       0.00000000     225.93716431
2
Properties=species:S:1:pos:R:3:forces:R:3 energy=15.128656091563464 pbc="F F F"
Ne       0.00000000       0.00000000       0.00000000       0.00000000       0.00000000    -134.86431885
Ne       0.00000000       0.00000000       0.57676768       0.00000000       0.00000000     134.86431885
2
Properties=species:S:1:pos:R:3:forces:R:3 energy=8.826960358572938 pbc="F F F"
Ne       0.00000000       0.00000000       0.00000000       0.00000000       0.00000000     -81.18434143
Ne       0.00000000       0.00000000       0.63636364       0.00000000       0.00000000      81.18434143
2
Properties=species:S:1:pos:R:3:forces:R:3 energy=5.034873902639455 pbc="F F F"
Ne       0.00000000       0.00000000       0.00000000       0.00000000       0.00000000     -48.74122620
Ne       0.00000000       0.00000000       0.69595960       0.00000000       0.00000000      48.74122620
2
Properties=species:S:1:pos:R:3:forces:R:3 energy=2.769968910869269 pbc="F F F"
Ne       0.00000000       0.00000000       0.00000000       0.00000000       0.00000000     -28.87198067
Ne       0.00000000       0.00000000       0.75555556       0.00000000       0.00000000      28.87198067
2
Properties=species:S:1:pos:R:3:forces:R:3 energy=1.4429049669570617 pbc="F F F"
Ne       0.00000000       0.00000000       0.00000000       0.00000000       0.00000000     -16.65063667
Ne       0.00000000       0.00000000       0.81515152       0.00000000       0.00000000      16.65063667
2
Properties=species:S:1:pos:R:3:forces:R:3 energy=0.6919234603594425 pbc="F F F"
Ne       0.00000000       0.00000000       0.00000000       0.00000000       0.00000000      -9.16958904
Ne       0.00000000       0.00000000       0.87474747       0.00000000       0.00000000       9.16958904
2
Properties=species:S:1:pos:R:3:forces:R:3 energy=0.29104695897416955 pbc="F F F"
Ne       0.00000000       0.00000000       0.00000000       0.00000000       0.00000000      -4.67555094
Ne       0.00000000       0.00000000       0.93434343       0.00000000       0.00000000       4.67555094
2
Properties=species:S:1:pos:R:3:forces:R:3 energy=0.09710580072665942 pbc="F F F"
Ne       0.00000000       0.00000000       0.00000000       0.00000000       0.00000000      -2.08367372
Ne       0.00000000       0.00000000       0.99393939       0.00000000       0.00000000       2.08367372
2
Properties=species:S:1:pos:R:3:forces:R:3 energy=0.018668601323465678 pbc="F F F"
Ne       0.00000000       0.00000000       0.00000000       0.00000000       0.00000000      -0.70920718
Ne       0.00000000       0.00000000       1.05353535       0.00000000       0.00000000       0.70920718
2
Properties=species:S:1:pos:R:3:forces:R:3 energy=-0.0027638901083798352 pbc="F F F"
Ne       0.00000000       0.00000000       0.00000000       0.00000000       0.00000000      -0.11179787
Ne       0.00000000       0.00000000       1.11313131       0.00000000       0.00000000       0.11179787
2
Properties=species:S:1:pos:R:3:forces:R:3 energy=-0.004268417729194836 pbc="F F F"
Ne       0.00000000       0.00000000       0.00000000       0.00000000       0.00000000       0.00432381
Ne       0.00000000       0.00000000       1.17272727       0.00000000       0.00000000      -0.00432381
2
Properties=species:S:1:pos:R:3:forces:R:3 energy=-0.004044553942861213 pbc="F F F"
Ne       0.00000000       0.00000000       0.00000000       0.00000000       0.00000000       0.00262374
Ne       0.00000000       0.00000000       1.23232323       0.00000000       0.00000000      -0.00262374
2
Properties=species:S:1:pos:R:3:forces:R:3 energy=-0.004012192538486216 pbc="F F F"
Ne       0.00000000       0.00000000       0.00000000       0.00000000       0.00000000      -0.00191328
Ne       0.00000000       0.00000000       1.29191919       0.00000000       0.00000000       0.00191328
2
Properties=species:S:1:pos:R:3:forces:R:3 energy=-0.004304922565640046 pbc="F F F"
Ne       0.00000000       0.00000000       0.00000000       0.00000000       0.00000000      -0.00807737
Ne       0.00000000       0.00000000       1.35151515       0.00000000       0.00000000       0.00807737
2
Properties=species:S:1:pos:R:3:forces:R:3 energy=-0.004983078116007783 pbc="F F F"
Ne       0.00000000       0.00000000       0.00000000       0.00000000       0.00000000      -0.01465645
Ne       0.00000000       0.00000000       1.41111111       0.00000000       0.00000000       0.01465645
2
Properties=species:S:1:pos:R:3:forces:R:3 energy=-0.006039496551501191 pbc="F F F"
Ne       0.00000000       0.00000000       0.00000000       0.00000000       0.00000000      -0.02062525
Ne       0.00000000       0.00000000       1.47070707       0.00000000       0.00000000       0.02062525
2
Properties=species:S:1:pos:R:3:forces:R:3 energy=-0.007415173127538777 pbc="F F F"
Ne       0.00000000       0.00000000       0.00000000       0.00000000       0.00000000      -0.02528604
Ne       0.00000000       0.00000000       1.53030303       0.00000000       0.00000000       0.02528604
2
Properties=species:S:1:pos:R:3:forces:R:3 energy=-0.009021067258541914 pbc="F F F"
Ne       0.00000000       0.00000000       0.00000000       0.00000000       0.00000000      -0.02833177
Ne       0.00000000       0.00000000       1.58989899       0.00000000       0.00000000       0.02833177
2
Properties=species:S:1:pos:R:3:forces:R:3 energy=-0.010760814263460872 pbc="F F F"
Ne       0.00000000       0.00000000       0.00000000       0.00000000       0.00000000      -0.02980960
Ne       0.00000000       0.00000000       1.64949495       0.00000000       0.00000000       0.02980960
2
Properties=species:S:1:pos:R:3:forces:R:3 energy=-0.012548388199259825 pbc="F F F"
Ne       0.00000000       0.00000000       0.00000000       0.00000000       0.00000000      -0.02999300
Ne       0.00000000       0.00000000       1.70909091       0.00000000       0.00000000       0.02999300
2
Properties=species:S:1:pos:R:3:forces:R:3 energy=-0.014316767399372531 pbc="F F F"
Ne       0.00000000       0.00000000       0.00000000       0.00000000       0.00000000      -0.02922078
Ne       0.00000000       0.00000000       1.76868687       0.00000000       0.00000000       0.02922078
2
Properties=species:S:1:pos:R:3:forces:R:3 energy=-0.01601819601385542 pbc="F F F"
Ne       0.00000000       0.00000000       0.00000000       0.00000000       0.00000000      -0.02778790
Ne       0.00000000       0.00000000       1.82828283       0.00000000       0.00000000       0.02778790
2
Properties=species:S:1:pos:R:3:forces:R:3 energy=-0.017620269917217206 pbc="F F F"
Ne       0.00000000       0.00000000       0.00000000       0.00000000       0.00000000      -0.02592011
Ne       0.00000000       0.00000000       1.88787879       0.00000000       0.00000000       0.02592011
2
Properties=species:S:1:pos:R:3:forces:R:3 energy=-0.019102499827261164 pbc="F F F"
Ne       0.00000000       0.00000000       0.00000000       0.00000000       0.00000000      -0.02379115
Ne       0.00000000       0.00000000       1.94747475       0.00000000       0.00000000       0.02379115
2
Properties=species:S:1:pos:R:3:forces:R:3 energy=-0.020453538691410426 pbc="F F F"
Ne       0.00000000       0.00000000       0.00000000       0.00000000       0.00000000      -0.02153799
Ne       0.00000000       0.00000000       2.00707071       0.00000000       0.00000000       0.02153799
2
Properties=species:S:1:pos:R:3:forces:R:3 energy=-0.021669252198697454 pbc="F F F"
Ne       0.00000000       0.00000000       0.00000000       0.00000000       0.00000000      -0.01926441
Ne       0.00000000       0.00000000       2.06666667       0.00000000       0.00000000       0.01926441
2
Properties=species:S:1:pos:R:3:forces:R:3 energy=-0.022750736440854097 pbc="F F F"
Ne       0.00000000       0.00000000       0.00000000       0.00000000       0.00000000      -0.01704284
Ne       0.00000000       0.00000000       2.12626263       0.00000000       0.00000000       0.01704284
2
Properties=species:S:1:pos:R:3:forces:R:3 energy=-0.02370261161873817 pbc="F F F"
Ne       0.00000000       0.00000000       0.00000000       0.00000000       0.00000000      -0.01491979
Ne       0.00000000       0.00000000       2.18585859       0.00000000       0.00000000       0.01491979
2
Properties=species:S:1:pos:R:3:forces:R:3 energy=-0.02453157840384944 pbc="F F F"
Ne       0.00000000       0.00000000       0.00000000       0.00000000       0.00000000      -0.01292271
Ne       0.00000000       0.00000000       2.24545455       0.00000000       0.00000000       0.01292271
2
Properties=species:S:1:pos:R:3:forces:R:3 energy=-0.025245662598101872 pbc="F F F"
Ne       0.00000000       0.00000000       0.00000000       0.00000000       0.00000000      -0.01106573
Ne       0.00000000       0.00000000       2.30505051       0.00000000       0.00000000       0.01106573
2
Properties=species:S:1:pos:R:3:forces:R:3 energy=-0.02585341834642786 pbc="F F F"
Ne       0.00000000       0.00000000       0.00000000       0.00000000       0.00000000      -0.00935405
Ne       0.00000000       0.00000000       2.36464646       0.00000000       0.00000000       0.00935405
2
Properties=species:S:1:pos:R:3:forces:R:3 energy=-0.02636347121575214 pbc="F F F"
Ne       0.00000000       0.00000000       0.00000000       0.00000000       0.00000000      -0.00778687
Ne       0.00000000       0.00000000       2.42424242       0.00000000       0.00000000       0.00778687
2
Properties=species:S:1:pos:R:3:forces:R:3 energy=-0.026784314637952673 pbc="F F F"
Ne       0.00000000       0.00000000       0.00000000       0.00000000       0.00000000      -0.00635947
Ne       0.00000000       0.00000000       2.48383838       0.00000000       0.00000000       0.00635947
2
Properties=species:S:1:pos:R:3:forces:R:3 energy=-0.027124105795353414 pbc="F F F"
Ne       0.00000000       0.00000000       0.00000000       0.00000000       0.00000000      -0.00506482
Ne       0.00000000       0.00000000       2.54343434       0.00000000       0.00000000       0.00506482
2
Properties=species:S:1:pos:R:3:forces:R:3 energy=-0.027390492657963127 pbc="F F F"
Ne       0.00000000       0.00000000       0.00000000       0.00000000       0.00000000      -0.00389481
Ne       0.00000000       0.00000000       2.60303030       0.00000000       0.00000000       0.00389481
2
Properties=species:S:1:pos:R:3:forces:R:3 energy=-0.027590644137528847 pbc="F F F"
Ne       0.00000000       0.00000000       0.00000000       0.00000000       0.00000000      -0.00284083
Ne       0.00000000       0.00000000       2.66262626       0.00000000       0.00000000       0.00284083
2
Properties=species:S:1:pos:R:3:forces:R:3 energy=-0.027731228717990334 pbc="F F F"
Ne       0.00000000       0.00000000       0.00000000       0.00000000       0.00000000      -0.00189439
Ne       0.00000000       0.00000000       2.72222222       0.00000000       0.00000000       0.00189439
2
Properties=species:S:1:pos:R:3:forces:R:3 energy=-0.027818407004899473 pbc="F F F"
Ne       0.00000000       0.00000000       0.00000000       0.00000000       0.00000000      -0.00104745
Ne       0.00000000       0.00000000       2.78181818       0.00000000       0.00000000       0.00104745
2
Properties=species:S:1:pos:R:3:forces:R:3 energy=-0.02785790247718562 pbc="F F F"
Ne       0.00000000       0.00000000       0.00000000       0.00000000       0.00000000      -0.00029268
Ne       0.00000000       0.00000000       2.84141414       0.00000000       0.00000000       0.00029268
2
Properties=species:S:1:pos:R:3:forces:R:3 energy=-0.027855003636283033 pbc="F F F"
Ne       0.00000000       0.00000000       0.00000000       0.00000000       0.00000000       0.00037607
Ne       0.00000000       0.00000000       2.90101010       0.00000000       0.00000000      -0.00037607
2
Properties=species:S:1:pos:R:3:forces:R:3 energy=-0.02781468938406855 pbc="F F F"
Ne       0.00000000       0.00000000       0.00000000       0.00000000       0.00000000       0.00096372
Ne       0.00000000       0.00000000       2.96060606       0.00000000       0.00000000      -0.00096372
2
Properties=species:S:1:pos:R:3:forces:R:3 energy=-0.02774168016597926 pbc="F F F"
Ne       0.00000000       0.00000000       0.00000000       0.00000000       0.00000000       0.00147367
Ne       0.00000000       0.00000000       3.02020202       0.00000000       0.00000000      -0.00147367
2
Properties=species:S:1:pos:R:3:forces:R:3 energy=-0.027640545008980926 pbc="F F F"
Ne       0.00000000       0.00000000       0.00000000       0.00000000       0.00000000       0.00190784
Ne       0.00000000       0.00000000       3.07979798       0.00000000       0.00000000      -0.00190784
2
Properties=species:S:1:pos:R:3:forces:R:3 energy=-0.027515769436240203 pbc="F F F"
Ne       0.00000000       0.00000000       0.00000000       0.00000000       0.00000000       0.00226702
Ne       0.00000000       0.00000000       3.13939394       0.00000000       0.00000000      -0.00226702
2
Properties=species:S:1:pos:R:3:forces:R:3 energy=-0.027371823902766393 pbc="F F F"
Ne       0.00000000       0.00000000       0.00000000       0.00000000       0.00000000       0.00255124
Ne       0.00000000       0.00000000       3.19898990       0.00000000       0.00000000      -0.00255124
2
Properties=species:S:1:pos:R:3:forces:R:3 energy=-0.02721317170946109 pbc="F F F"
Ne       0.00000000       0.00000000       0.00000000       0.00000000       0.00000000       0.00276049
Ne       0.00000000       0.00000000       3.25858586       0.00000000       0.00000000      -0.00276049
2
Properties=species:S:1:pos:R:3:forces:R:3 energy=-0.027044274650796674 pbc="F F F"
Ne       0.00000000       0.00000000       0.00000000       0.00000000       0.00000000       0.00289533
Ne       0.00000000       0.00000000       3.31818182       0.00000000       0.00000000      -0.00289533
2
Properties=species:S:1:pos:R:3:forces:R:3 energy=-0.026869516310130497 pbc="F F F"
Ne       0.00000000       0.00000000       0.00000000       0.00000000       0.00000000       0.00295750
Ne       0.00000000       0.00000000       3.37777778       0.00000000       0.00000000      -0.00295750
2
Properties=species:S:1:pos:R:3:forces:R:3 energy=-0.026693140519417943 pbc="F F F"
Ne       0.00000000       0.00000000       0.00000000       0.00000000       0.00000000       0.00295045
Ne       0.00000000       0.00000000       3.43737374       0.00000000       0.00000000      -0.00295045
2
Properties=species:S:1:pos:R:3:forces:R:3 energy=-0.026519117337255073 pbc="F F F"
Ne       0.00000000       0.00000000       0.00000000       0.00000000       0.00000000       0.00287951
Ne       0.00000000       0.00000000       3.49696970       0.00000000       0.00000000      -0.00287951
2
Properties=species:S:1:pos:R:3:forces:R:3 energy=-0.02635104608458822 pbc="F F F"
Ne       0.00000000       0.00000000       0.00000000       0.00000000       0.00000000       0.00275213
Ne       0.00000000       0.00000000       3.55656566       0.00000000       0.00000000      -0.00275213
2
Properties=species:S:1:pos:R:3:forces:R:3 energy=-0.02619201940811662 pbc="F F F"
Ne       0.00000000       0.00000000       0.00000000       0.00000000       0.00000000       0.00257781
Ne       0.00000000       0.00000000       3.61616162       0.00000000       0.00000000      -0.00257781
2
Properties=species:S:1:pos:R:3:forces:R:3 energy=-0.026044501228914326 pbc="F F F"
Ne       0.00000000       0.00000000       0.00000000       0.00000000       0.00000000       0.00236796
Ne       0.00000000       0.00000000       3.67575758       0.00000000       0.00000000      -0.00236796
2
Properties=species:S:1:pos:R:3:forces:R:3 energy=-0.025910228564209103 pbc="F F F"
Ne       0.00000000       0.00000000       0.00000000       0.00000000       0.00000000       0.00213551
Ne       0.00000000       0.00000000       3.73535354       0.00000000       0.00000000      -0.00213551
2
Properties=species:S:1:pos:R:3:forces:R:3 energy=-0.0257901372665649 pbc="F F F"
Ne       0.00000000       0.00000000       0.00000000       0.00000000       0.00000000       0.00189434
Ne       0.00000000       0.00000000       3.79494949       0.00000000       0.00000000      -0.00189434
2
Properties=species:S:1:pos:R:3:forces:R:3 energy=-0.02568433452718194 pbc="F F F"
Ne       0.00000000       0.00000000       0.00000000       0.00000000       0.00000000       0.00165832
Ne       0.00000000       0.00000000       3.85454545       0.00000000       0.00000000      -0.00165832
2
Properties=species:S:1:pos:R:3:forces:R:3 energy=-0.025592124684695808 pbc="F F F"
Ne       0.00000000       0.00000000       0.00000000       0.00000000       0.00000000       0.00144010
Ne       0.00000000       0.00000000       3.91414141       0.00000000       0.00000000      -0.00144010
2
Properties=species:S:1:pos:R:3:forces:R:3 energy=-0.025512129750145062 pbc="F F F"
Ne       0.00000000       0.00000000       0.00000000       0.00000000       0.00000000       0.00124972
Ne       0.00000000       0.00000000       3.97373737       0.00000000       0.00000000      -0.00124972
2
Properties=species:S:1:pos:R:3:forces:R:3 energy=-0.025442485985157387 pbc="F F F"
Ne       0.00000000       0.00000000       0.00000000       0.00000000       0.00000000       0.00109348
Ne       0.00000000       0.00000000       4.03333333       0.00000000       0.00000000      -0.00109348
2
Properties=species:S:1:pos:R:3:forces:R:3 energy=-0.02538108171881386 pbc="F F F"
Ne       0.00000000       0.00000000       0.00000000       0.00000000       0.00000000       0.00097313
Ne       0.00000000       0.00000000       4.09292929       0.00000000       0.00000000      -0.00097313
2
Properties=species:S:1:pos:R:3:forces:R:3 energy=-0.025325836984159248 pbc="F F F"
Ne       0.00000000       0.00000000       0.00000000       0.00000000       0.00000000       0.00088593
Ne       0.00000000       0.00000000       4.15252525       0.00000000       0.00000000      -0.00088593
2
Properties=species:S:1:pos:R:3:forces:R:3 energy=-0.025274953761366414 pbc="F F F"
Ne       0.00000000       0.00000000       0.00000000       0.00000000       0.00000000       0.00082541
Ne       0.00000000       0.00000000       4.21212121       0.00000000       0.00000000      -0.00082541
2
Properties=species:S:1:pos:R:3:forces:R:3 energy=-0.025227094202954523 pbc="F F F"
Ne       0.00000000       0.00000000       0.00000000       0.00000000       0.00000000       0.00078295
Ne       0.00000000       0.00000000       4.27171717       0.00000000       0.00000000      -0.00078295
2
Properties=species:S:1:pos:R:3:forces:R:3 energy=-0.02518145293571986 pbc="F F F"
Ne       0.00000000       0.00000000       0.00000000       0.00000000       0.00000000       0.00074959
Ne       0.00000000       0.00000000       4.33131313       0.00000000       0.00000000      -0.00074959
2
Properties=species:S:1:pos:R:3:forces:R:3 energy=-0.025137722381688304 pbc="F F F"
Ne       0.00000000       0.00000000       0.00000000       0.00000000       0.00000000       0.00071774
Ne       0.00000000       0.00000000       4.39090909       0.00000000       0.00000000      -0.00071774
2
Properties=species:S:1:pos:R:3:forces:R:3 energy=-0.025095974111544503 pbc="F F F"
Ne       0.00000000       0.00000000       0.00000000       0.00000000       0.00000000       0.00068243
Ne       0.00000000       0.00000000       4.45050505       0.00000000       0.00000000      -0.00068243
2
Properties=species:S:1:pos:R:3:forces:R:3 energy=-0.025056487351035706 pbc="F F F"
Ne       0.00000000       0.00000000       0.00000000       0.00000000       0.00000000       0.00064188
Ne       0.00000000       0.00000000       4.51010101       0.00000000       0.00000000      -0.00064188
2
Properties=species:S:1:pos:R:3:forces:R:3 energy=-0.025019547221329 pbc="F F F"
Ne       0.00000000       0.00000000       0.00000000       0.00000000       0.00000000       0.00059739
Ne       0.00000000       0.00000000       4.56969697       0.00000000       0.00000000      -0.00059739
2
Properties=species:S:1:pos:R:3:forces:R:3 energy=-0.02498528774409924 pbc="F F F"
Ne       0.00000000       0.00000000       0.00000000       0.00000000       0.00000000       0.00055270
Ne       0.00000000       0.00000000       4.62929293       0.00000000       0.00000000      -0.00055270
2
Properties=species:S:1:pos:R:3:forces:R:3 energy=-0.02495357236650413 pbc="F F F"
Ne       0.00000000       0.00000000       0.00000000       0.00000000       0.00000000       0.00051296
Ne       0.00000000       0.00000000       4.68888889       0.00000000       0.00000000      -0.00051296
2
Properties=species:S:1:pos:R:3:forces:R:3 energy=-0.0249239468193381 pbc="F F F"
Ne       0.00000000       0.00000000       0.00000000       0.00000000       0.00000000       0.00048332
Ne       0.00000000       0.00000000       4.74848485       0.00000000       0.00000000      -0.00048332
2
Properties=species:S:1:pos:R:3:forces:R:3 energy=-0.024895687354316666 pbc="F F F"
Ne       0.00000000       0.00000000       0.00000000       0.00000000       0.00000000       0.00046747
Ne       0.00000000       0.00000000       4.80808081       0.00000000       0.00000000      -0.00046747
2
Properties=species:S:1:pos:R:3:forces:R:3 energy=-0.024867930974245837 pbc="F F F"
Ne       0.00000000       0.00000000       0.00000000       0.00000000       0.00000000       0.00046643
Ne       0.00000000       0.00000000       4.86767677       0.00000000       0.00000000      -0.00046643
2
Properties=species:S:1:pos:R:3:forces:R:3 energy=-0.024839841190191156 pbc="F F F"
Ne       0.00000000       0.00000000       0.00000000       0.00000000       0.00000000       0.00047794
Ne       0.00000000       0.00000000       4.92727273       0.00000000       0.00000000      -0.00047794
2
Properties=species:S:1:pos:R:3:forces:R:3 energy=-0.024810814032630954 pbc="F F F"
Ne       0.00000000       0.00000000       0.00000000       0.00000000       0.00000000       0.00049693
Ne       0.00000000       0.00000000       4.98686869       0.00000000       0.00000000      -0.00049693
2
Properties=species:S:1:pos:R:3:forces:R:3 energy=-0.024780593782941694 pbc="F F F"
Ne       0.00000000       0.00000000       0.00000000       0.00000000       0.00000000       0.00051696
Ne       0.00000000       0.00000000       5.04646465       0.00000000       0.00000000      -0.00051696
2
Properties=species:S:1:pos:R:3:forces:R:3 energy=-0.024749289570463413 pbc="F F F"
Ne       0.00000000       0.00000000       0.00000000       0.00000000       0.00000000       0.00053242
Ne       0.00000000       0.00000000       5.10606061       0.00000000       0.00000000      -0.00053242
2
Properties=species:S:1:pos:R:3:forces:R:3 energy=-0.024717281070558195 pbc="F F F"
Ne       0.00000000       0.00000000       0.00000000       0.00000000       0.00000000       0.00054041
Ne       0.00000000       0.00000000       5.16565657       0.00000000       0.00000000      -0.00054041
2
Properties=species:S:1:pos:R:3:forces:R:3 energy=-0.02468501608912923 pbc="F F F"
Ne       0.00000000       0.00000000       0.00000000       0.00000000       0.00000000       0.00054150
Ne       0.00000000       0.00000000       5.22525253       0.00000000       0.00000000      -0.00054150
2
Properties=species:S:1:pos:R:3:forces:R:3 energy=-0.02465281763360588 pbc="F F F"
Ne       0.00000000       0.00000000       0.00000000       0.00000000       0.00000000       0.00053872
Ne       0.00000000       0.00000000       5.28484848       0.00000000       0.00000000      -0.00053872
2
Properties=species:S:1:pos:R:3:forces:R:3 energy=-0.024620828318198233 pbc="F F F"
Ne       0.00000000       0.00000000       0.00000000       0.00000000       0.00000000       0.00053453
Ne       0.00000000       0.00000000       5.34444444       0.00000000       0.00000000      -0.00053453
2
Properties=species:S:1:pos:R:3:forces:R:3 energy=-0.024589163688891025 pbc="F F F"
Ne       0.00000000       0.00000000       0.00000000       0.00000000       0.00000000       0.00052710
Ne       0.00000000       0.00000000       5.40404040       0.00000000       0.00000000      -0.00052710
2
Properties=species:S:1:pos:R:3:forces:R:3 energy=-0.02455818955958202 pbc="F F F"
Ne       0.00000000       0.00000000       0.00000000       0.00000000       0.00000000       0.00051008
Ne       0.00000000       0.00000000       5.46363636       0.00000000       0.00000000      -0.00051008
2
Properties=species:S:1:pos:R:3:forces:R:3 energy=-0.02452865736646262 pbc="F F F"
Ne       0.00000000       0.00000000       0.00000000       0.00000000       0.00000000       0.00047898
Ne       0.00000000       0.00000000       5.52323232       0.00000000       0.00000000      -0.00047898
2
Properties=species:S:1:pos:R:3:forces:R:3 energy=-0.02450138719661056 pbc="F F F"
Ne       0.00000000       0.00000000       0.00000000       0.00000000       0.00000000       0.00043382
Ne       0.00000000       0.00000000       5.58282828       0.00000000       0.00000000      -0.00043382
2
Properties=species:S:1:pos:R:3:forces:R:3 energy=-0.024477192477854116 pbc="F F F"
Ne       0.00000000       0.00000000       0.00000000       0.00000000       0.00000000       0.00037648
Ne       0.00000000       0.00000000       5.64242424       0.00000000       0.00000000      -0.00037648
2
Properties=species:S:1:pos:R:3:forces:R:3 energy=-0.024456675112554272 pbc="F F F"
Ne       0.00000000       0.00000000       0.00000000       0.00000000       0.00000000       0.00031059
Ne       0.00000000       0.00000000       5.70202020       0.00000000       0.00000000      -0.00031059
2
Properties=species:S:1:pos:R:3:forces:R:3 energy=-0.02444025290993546 pbc="F F F"
Ne       0.00000000       0.00000000       0.00000000       0.00000000       0.00000000       0.00024104
Ne       0.00000000       0.00000000       5.76161616       0.00000000       0.00000000      -0.00024104
2
Properties=species:S:1:pos:R:3:forces:R:3 energy=-0.024427810720786064 pbc="F F F"
Ne       0.00000000       0.00000000       0.00000000       0.00000000       0.00000000       0.00017843
Ne       0.00000000       0.00000000       5.82121212       0.00000000       0.00000000      -0.00017843
2
Properties=species:S:1:pos:R:3:forces:R:3 energy=-0.024418678110465247 pbc="F F F"
Ne       0.00000000       0.00000000       0.00000000       0.00000000       0.00000000       0.00013124
Ne       0.00000000       0.00000000       5.88080808       0.00000000       0.00000000      -0.00013124
2
Properties=species:S:1:pos:R:3:forces:R:3 energy=-0.024411833649715556 pbc="F F F"
Ne       0.00000000       0.00000000       0.00000000       0.00000000       0.00000000       0.00010072
Ne       0.00000000       0.00000000       5.94040404       0.00000000       0.00000000      -0.00010072
2
Properties=species:S:1:pos:R:3:forces:R:3 energy=-0.024406344498918132 pbc="F F F"
Ne       0.00000000       0.00000000       0.00000000       0.00000000       0.00000000       0.00008638
Ne       0.00000000       0.00000000       6.00000000       0.00000000       0.00000000      -0.00008638
