2
Properties=species:S:1:pos:R:3:forces:R:3 energy=803.3561750152371 pbc="F F F"
Ne       0.00000000       0.00000000       0.00000000       0.00000000       0.00000000  -11240.26855469
Ne       0.00000000       0.00000000       0.18000000       0.00000000       0.00000000   11240.26855469
2
Properties=species:S:1:pos:R:3:forces:R:3 energy=378.43957955625274 pbc="F F F"
Ne       0.00000000       0.00000000       0.00000000       0.00000000       0.00000000   -4464.12109375
Ne       0.00000000       0.00000000       0.23878788       0.00000000       0.00000000    4464.12109375
2
Properties=species:S:1:pos:R:3:forces:R:3 energy=197.52118356174287 pbc="F F F"
Ne       0.00000000       0.00000000       0.00000000       0.00000000       0.00000000   -2060.20629883
Ne       0.00000000       0.00000000       0.29757576       0.00000000       0.00000000    2060.20629883
2
Properties=species:S:1:pos:R:3:forces:R:3 energy=109.90316446209472 pbc="F F F"
Ne       0.00000000       0.00000000       0.00000000       0.00000000       0.00000000   -1053.34509277
Ne       0.00000000       0.00000000       0.35636364       0.00000000       0.00000000    1053.34509277
2
Properties=species:S:1:pos:R:3:forces:R:3 energy=63.565258587809126 pbc="F F F"
Ne       0.00000000       0.00000000       0.00000000       0.00000000       0.00000000    -577.96191406
Ne       0.00000000       0.00000000       0.41515152       0.00000000       0.00000000     577.96191406
2
Properties=species:S:1:pos:R:3:forces:R:3 energy=37.54556332443766 pbc="F F F"
Ne       0.00000000       0.00000000       0.00000000       0.00000000       0.00000000    -332.53588867
Ne       0.00000000       0.00000000       0.47393939       0.00000000       0.00000000     332.53588867
2
Properties=species:S:1:pos:R:3:forces:R:3 energy=22.34933151724269 pbc="F F F"
Ne       0.00000000       0.00000000       0.00000000       0.00000000       0.00000000    -197.17483521
Ne       0.00000000       0.00000000       0.53272727       0.00000000       0.00000000     197.17483521
2
Properties=species:S:1:pos:R:3:forces:R:3 energy=13.259948452918088 pbc="F F F"
Ne       0.00000000       0.00000000       0.00000000       0.00000000       0.00000000    -118.90783691
Ne       0.00000000       0.00000000       0.59151515       0.00000000       0.00000000     118.90783691
2
Properties=species:S:1:pos:R:3:forces:R:3 energy=7.759874644132898 pbc="F F F"
Ne       0.00000000       0.00000000       0.00000000       0.00000000       0.00000000     -72.09619904
Ne       0.00000000       0.00000000       0.65030303       0.00000000       0.00000000      72.09619904
2
Properties=species:S:1:pos:R:3:forces:R:3 energy=4.429881554142188 pbc="F F F"
Ne       0.00000000       0.00000000       0.00000000       0.00000000       0.00000000     -43.49779510
Ne       0.00000000       0.00000000       0.70909091       0.00000000       0.00000000      43.49779510
2
Properties=species:S:1:pos:R:3:forces:R:3 energy=2.433191997656962 pbc="F F F"
Ne       0.00000000       0.00000000       0.00000000       0.00000000       0.00000000     -25.83611298
Ne       0.00000000       0.00000000       0.76787879       0.00000000       0.00000000      25.83611298
2
Properties=species:S:1:pos:R:3:forces:R:3 energy=1.2613942408608916 pbc="F F F"
Ne       0.00000000       0.00000000       0.00000000       0.00000000       0.00000000     -14.90240288
Ne       0.00000000       0.00000000       0.82666667       0.00000000       0.00000000      14.90240288
2
Properties=species:S:1:pos:R:3:forces:R:3 energy=0.5991222932163965 pbc="F F F"
Ne       0.00000000       0.00000000       0.00000000       0.00000000       0.00000000      -8.18034744
Ne       0.00000000       0.00000000       0.88545455       0.00000000       0.00000000       8.18034744
2
Properties=species:S:1:pos:R:3:forces:R:3 energy=0.2474793177185737 pbc="F F F"
Ne       0.00000000       0.00000000       0.00000000       0.00000000       0.00000000      -4.13566065
Ne       0.00000000       0.00000000       0.94424242       0.00000000       0.00000000       4.13566065
2
Properties=species:S:1:pos:R:3:forces:R:3 energy=0.0794334612501425 pbc="F F F"
Ne       0.00000000       0.00000000       0.00000000       0.00000000       0.00000000      -1.80845976
Ne       0.00000000       0.00000000       1.00303030       0.00000000       0.00000000       1.80845976
2
Properties=species:S:1:pos:R:3:forces:R:3 energy=0.01330474762194433 pbc="F F F"
Ne       0.00000000       0.00000000       0.00000000       0.00000000       0.00000000      -0.58747476
Ne       0.00000000       0.00000000       1.06181818       0.00000000       0.00000000       0.58747476
2
Properties=species:S:1:pos:R:3:forces:R:3 energy=-0.003460388975997231 pbc="F F F"
Ne       0.00000000       0.00000000       0.00000000       0.00000000       0.00000000      -0.07606716
Ne       0.00000000       0.00000000       1.12060606       0.00000000       0.00000000       0.07606716
2
Properties=species:S:1:pos:R:3:forces:R:3 energy=-0.00423962484119254 pbc="F F F"
Ne       0.00000000       0.00000000       0.00000000       0.00000000       0.00000000       0.00430836
Ne       0.00000000       0.00000000       1.17939394       0.00000000       0.00000000      -0.00430836
2
Properties=species:S:1:pos:R:3:forces:R:3 energy=-0.004030156003542689 pbc="F F F"
Ne       0.00000000       0.00000000       0.00000000       0.00000000       0.00000000       0.00228481
Ne       0.00000000       0.00000000       1.23818182       0.00000000       0.00000000      -0.00228481
2
Properties=species:S:1:pos:R:3:forces:R:3 energy=-0.004023055896671313 pbc="F F F"
Ne       0.00000000       0.00000000       0.00000000       0.00000000       0.00000000      -0.00239014
Ne       0.00000000       0.00000000       1.29696970       0.00000000       0.00000000       0.00239014
2
Properties=species:S:1:pos:R:3:forces:R:3 energy=-0.00434016943099233 pbc="F F F"
Ne       0.00000000       0.00000000       0.00000000       0.00000000       0.00000000      -0.00854553
Ne       0.00000000       0.00000000       1.35575758       0.00000000       0.00000000       0.00854553
2
Properties=species:S:1:pos:R:3:forces:R:3 energy=-0.005034051177111331 pbc="F F F"
Ne       0.00000000       0.00000000       0.00000000       0.00000000       0.00000000      -0.01502539
Ne       0.00000000       0.00000000       1.41454545       0.00000000       0.00000000       0.01502539
2
Properties=species:S:1:pos:R:3:forces:R:3 energy=-0.006093983455059045 pbc="F F F"
Ne       0.00000000       0.00000000       0.00000000       0.00000000       0.00000000      -0.02086190
Ne       0.00000000       0.00000000       1.47333333       0.00000000       0.00000000       0.02086190
2
Properties=species:S:1:pos:R:3:forces:R:3 energy=-0.0074612560084282575 pbc="F F F"
Ne       0.00000000       0.00000000       0.00000000       0.00000000       0.00000000      -0.02540341
Ne       0.00000000       0.00000000       1.53212121       0.00000000       0.00000000       0.02540341
2
Properties=species:S:1:pos:R:3:forces:R:3 energy=-0.009049703691279606 pbc="F F F"
Ne       0.00000000       0.00000000       0.00000000       0.00000000       0.00000000      -0.02836934
Ne       0.00000000       0.00000000       1.59090909       0.00000000       0.00000000       0.02836934
2
Properties=species:S:1:pos:R:3:forces:R:3 energy=-0.010766831122756781 pbc="F F F"
Ne       0.00000000       0.00000000       0.00000000       0.00000000       0.00000000      -0.02981219
Ne       0.00000000       0.00000000       1.64969697       0.00000000       0.00000000       0.02981219
2
Properties=species:S:1:pos:R:3:forces:R:3 energy=-0.012530206619000443 pbc="F F F"
Ne       0.00000000       0.00000000       0.00000000       0.00000000       0.00000000      -0.02999652
Ne       0.00000000       0.00000000       1.70848485       0.00000000       0.00000000       0.02999652
2
Properties=species:S:1:pos:R:3:forces:R:3 energy=-0.014275454407505803 pbc="F F F"
Ne       0.00000000       0.00000000       0.00000000       0.00000000       0.00000000      -0.02924775
Ne       0.00000000       0.00000000       1.76727273       0.00000000       0.00000000       0.02924775
2
Properties=species:S:1:pos:R:3:forces:R:3 energy=-0.015956369832387803 pbc="F F F"
Ne       0.00000000       0.00000000       0.00000000       0.00000000       0.00000000      -0.02785036
Ne       0.00000000       0.00000000       1.82606061       0.00000000       0.00000000       0.02785036
2
Properties=species:S:1:pos:R:3:forces:R:3 energy=-0.017541552997128302 pbc="F F F"
Ne       0.00000000       0.00000000       0.00000000       0.00000000       0.00000000      -0.02602271
Ne       0.00000000       0.00000000       1.88484848       0.00000000       0.00000000       0.02602271
2
Properties=species:S:1:pos:R:3:forces:R:3 energy=-0.019010895771577937 pbc="F F F"
Ne       0.00000000       0.00000000       0.00000000       0.00000000       0.00000000      -0.02393332
Ne       0.00000000       0.00000000       1.94363636       0.00000000       0.00000000       0.02393332
2
Properties=species:S:1:pos:R:3:forces:R:3 energy=-0.02035305588364339 pbc="F F F"
Ne       0.00000000       0.00000000       0.00000000       0.00000000       0.00000000      -0.02171554
Ne       0.00000000       0.00000000       2.00242424       0.00000000       0.00000000       0.02171554
2
Properties=species:S:1:pos:R:3:forces:R:3 energy=-0.021563607898872655 pbc="F F F"
Ne       0.00000000       0.00000000       0.00000000       0.00000000       0.00000000      -0.01947122
Ne       0.00000000       0.00000000       2.06121212       0.00000000       0.00000000       0.01947122
2
Properties=species:S:1:pos:R:3:forces:R:3 energy=-0.02264330849610629 pbc="F F F"
Ne       0.00000000       0.00000000       0.00000000       0.00000000       0.00000000      -0.01727226
Ne       0.00000000       0.00000000       2.12000000       0.00000000       0.00000000       0.01727226
2
Properties=species:S:1:pos:R:3:forces:R:3 energy=-0.023596241859127204 pbc="F F F"
Ne       0.00000000       0.00000000       0.00000000       0.00000000       0.00000000      -0.01516548
Ne       0.00000000       0.00000000       2.17878788       0.00000000       0.00000000       0.01516548
2
Properties=species:S:1:pos:R:3:forces:R:3 energy=-0.024428758232163356 pbc="F F F"
Ne       0.00000000       0.00000000       0.00000000       0.00000000       0.00000000      -0.01317889
Ne       0.00000000       0.00000000       2.23757576       0.00000000       0.00000000       0.01317889
2
Properties=species:S:1:pos:R:3:forces:R:3 energy=-0.025148398293187685 pbc="F F F"
Ne       0.00000000       0.00000000       0.00000000       0.00000000       0.00000000      -0.01132741
Ne       0.00000000       0.00000000       2.29636364       0.00000000       0.00000000       0.01132741
2
Properties=species:S:1:pos:R:3:forces:R:3 energy=-0.025763351739148486 pbc="F F F"
Ne       0.00000000       0.00000000       0.00000000       0.00000000       0.00000000      -0.00961701
Ne       0.00000000       0.00000000       2.35515152       0.00000000       0.00000000       0.00961701
2
Properties=species:S:1:pos:R:3:forces:R:3 energy=-0.026281897611975736 pbc="F F F"
Ne       0.00000000       0.00000000       0.00000000       0.00000000       0.00000000      -0.00804765
Ne       0.00000000       0.00000000       2.41393939       0.00000000       0.00000000       0.00804765
2
Properties=species:S:1:pos:R:3:forces:R:3 energy=-0.026712245122044787 pbc="F F F"
Ne       0.00000000       0.00000000       0.00000000       0.00000000       0.00000000      -0.00661529
Ne       0.00000000       0.00000000       2.47272727       0.00000000       0.00000000       0.00661529
2
Properties=species:S:1:pos:R:3:forces:R:3 energy=-0.027062257726710535 pbc="F F F"
Ne       0.00000000       0.00000000       0.00000000       0.00000000       0.00000000      -0.00531350
Ne       0.00000000       0.00000000       2.53151515       0.00000000       0.00000000       0.00531350
2
Properties=species:S:1:pos:R:3:forces:R:3 energy=-0.02733938903716713 pbc="F F F"
Ne       0.00000000       0.00000000       0.00000000       0.00000000       0.00000000      -0.00413465
Ne       0.00000000       0.00000000       2.59030303       0.00000000       0.00000000       0.00413465
2
Properties=species:S:1:pos:R:3:forces:R:3 energy=-0.027550635327623623 pbc="F F F"
Ne       0.00000000       0.00000000       0.00000000       0.00000000       0.00000000      -0.00307049
Ne       0.00000000       0.00000000       2.64909091       0.00000000       0.00000000       0.00307049
2
Properties=species:S:1:pos:R:3:forces:R:3 energy=-0.027702496771486933 pbc="F F F"
Ne       0.00000000       0.00000000       0.00000000       0.00000000       0.00000000      -0.00211280
Ne       0.00000000       0.00000000       2.70787879       0.00000000       0.00000000       0.00211280
2
Properties=species:S:1:pos:R:3:forces:R:3 energy=-0.02780098818475646 pbc="F F F"
Ne       0.00000000       0.00000000       0.00000000       0.00000000       0.00000000      -0.00125375
Ne       0.00000000       0.00000000       2.76666667       0.00000000       0.00000000       0.00125375
2
Properties=species:S:1:pos:R:3:forces:R:3 energy=-0.027851698828657734 pbc="F F F"
Ne       0.00000000       0.00000000       0.00000000       0.00000000       0.00000000      -0.00048614
Ne       0.00000000       0.00000000       2.82545455       0.00000000       0.00000000       0.00048614
2
Properties=species:S:1:pos:R:3:forces:R:3 energy=-0.027859815290102074 pbc="F F F"
Ne       0.00000000       0.00000000       0.00000000       0.00000000       0.00000000       0.00019630
Ne       0.00000000       0.00000000       2.88424242       0.00000000       0.00000000      -0.00019630
2
Properties=species:S:1:pos:R:3:forces:R:3 energy=-0.027830188119932025 pbc="F F F"
Ne       0.00000000       0.00000000       0.00000000       0.00000000       0.00000000       0.00079864
Ne       0.00000000       0.00000000       2.94303030       0.00000000       0.00000000      -0.00079864
2
Properties=species:S:1:pos:R:3:forces:R:3 energy=-0.027767409647037753 pbc="F F F"
Ne       0.00000000       0.00000000       0.00000000       0.00000000       0.00000000       0.00132450
Ne       0.00000000       0.00000000       3.00181818       0.00000000       0.00000000      -0.00132450
2
Properties=species:S:1:pos:R:3:forces:R:3 energy=-0.02767590781631908 pbc="F F F"
Ne       0.00000000       0.00000000       0.00000000       0.00000000       0.00000000       0.00177622
Ne       0.00000000       0.00000000       3.06060606       0.00000000       0.00000000      -0.00177622
2
Properties=species:S:1:pos:R:3:forces:R:3 energy=-0.027560004430652655 pbc="F F F"
Ne       0.00000000       0.00000000       0.00000000       0.00000000       0.00000000       0.00215483
Ne       0.00000000       0.00000000       3.11939394       0.00000000       0.00000000      -0.00215483
2
Properties=species:S:1:pos:R:3:forces:R:3 energy=-0.0274239813644093 pbc="F F F"
Ne       0.00000000       0.00000000       0.00000000       0.00000000       0.00000000       0.00246053
Ne       0.00000000       0.00000000       3.17818182       0.00000000       0.00000000      -0.00246053
2
Properties=species:S:1:pos:R:3:forces:R:3 energy=-0.02727213444966576 pbc="F F F"
Ne       0.00000000       0.00000000       0.00000000       0.00000000       0.00000000       0.00269324
Ne       0.00000000       0.00000000       3.23696970       0.00000000       0.00000000      -0.00269324
2
Properties=species:S:1:pos:R:3:forces:R:3 energy=-0.027108748412361536 pbc="F F F"
Ne       0.00000000       0.00000000       0.00000000       0.00000000       0.00000000       0.00285325
Ne       0.00000000       0.00000000       3.29575758       0.00000000       0.00000000      -0.00285325
2
Properties=species:S:1:pos:R:3:forces:R:3 energy=-0.026938065024838878 pbc="F F F"
Ne       0.00000000       0.00000000       0.00000000       0.00000000       0.00000000       0.00294173
Ne       0.00000000       0.00000000       3.35454545       0.00000000       0.00000000      -0.00294173
2
Properties=species:S:1:pos:R:3:forces:R:3 energy=-0.026764221338816643 pbc="F F F"
Ne       0.00000000       0.00000000       0.00000000       0.00000000       0.00000000       0.00296133
Ne       0.00000000       0.00000000       3.41333333       0.00000000       0.00000000      -0.00296133
2
Properties=species:S:1:pos:R:3:forces:R:3 energy=-0.0265911483470952 pbc="F F F"
Ne       0.00000000       0.00000000       0.00000000       0.00000000       0.00000000       0.00291642
Ne       0.00000000       0.00000000       3.47212121       0.00000000       0.00000000      -0.00291642
2
Properties=species:S:1:pos:R:3:forces:R:3 energy=-0.0264224630568804 pbc="F F F"
Ne       0.00000000       0.00000000       0.00000000       0.00000000       0.00000000       0.00281333
Ne       0.00000000       0.00000000       3.53090909       0.00000000       0.00000000      -0.00281333
2
Properties=species:S:1:pos:R:3:forces:R:3 energy=-0.026261349155502153 pbc="F F F"
Ne       0.00000000       0.00000000       0.00000000       0.00000000       0.00000000       0.00266033
Ne       0.00000000       0.00000000       3.58969697       0.00000000       0.00000000      -0.00266033
2
Properties=species:S:1:pos:R:3:forces:R:3 energy=-0.026110451741091965 pbc="F F F"
Ne       0.00000000       0.00000000       0.00000000       0.00000000       0.00000000       0.00246761
Ne       0.00000000       0.00000000       3.64848485       0.00000000       0.00000000      -0.00246761
2
Properties=species:S:1:pos:R:3:forces:R:3 energy=-0.025971765358136903 pbc="F F F"
Ne       0.00000000       0.00000000       0.00000000       0.00000000       0.00000000       0.00224698
Ne       0.00000000       0.00000000       3.70727273       0.00000000       0.00000000      -0.00224698
2
Properties=species:S:1:pos:R:3:forces:R:3 energy=-0.02584655404973221 pbc="F F F"
Ne       0.00000000       0.00000000       0.00000000       0.00000000       0.00000000       0.00201144
Ne       0.00000000       0.00000000       3.76606061       0.00000000       0.00000000      -0.00201144
2
Properties=species:S:1:pos:R:3:forces:R:3 energy=-0.025735297765600025 pbc="F F F"
Ne       0.00000000       0.00000000       0.00000000       0.00000000       0.00000000       0.00177446
Ne       0.00000000       0.00000000       3.82484848       0.00000000       0.00000000      -0.00177446
2
Properties=species:S:1:pos:R:3:forces:R:3 energy=-0.025637696116130034 pbc="F F F"
Ne       0.00000000       0.00000000       0.00000000       0.00000000       0.00000000       0.00154888
Ne       0.00000000       0.00000000       3.88363636       0.00000000       0.00000000      -0.00154888
2
Properties=species:S:1:pos:R:3:forces:R:3 energy=-0.025552743816134968 pbc="F F F"
Ne       0.00000000       0.00000000       0.00000000       0.00000000       0.00000000       0.00134579
Ne       0.00000000       0.00000000       3.94242424       0.00000000       0.00000000      -0.00134579
2
Properties=species:S:1:pos:R:3:forces:R:3 energy=-0.02547886213295247 pbc="F F F"
Ne       0.00000000       0.00000000       0.00000000       0.00000000       0.00000000       0.00117323
Ne       0.00000000       0.00000000       4.00121212       0.00000000       0.00000000      -0.00117323
2
Properties=species:S:1:pos:R:3:forces:R:3 energy=-0.025414118738571002 pbc="F F F"
Ne       0.00000000       0.00000000       0.00000000       0.00000000       0.00000000       0.00103526
Ne       0.00000000       0.00000000       4.06000000       0.00000000       0.00000000      -0.00103526
2
Properties=species:S:1:pos:R:3:forces:R:3 energy=-0.02535646832958645 pbc="F F F"
Ne       0.00000000       0.00000000       0.00000000       0.00000000       0.00000000       0.00093153
Ne       0.00000000       0.00000000       4.11878788       0.00000000       0.00000000      -0.00093153
2
Properties=species:S:1:pos:R:3:forces:R:3 energy=-0.02530400624917627 pbc="F F F"
Ne       0.00000000       0.00000000       0.00000000       0.00000000       0.00000000       0.00085771
Ne       0.00000000       0.00000000       4.17757576       0.00000000       0.00000000      -0.00085771
2
Properties=species:S:1:pos:R:3:forces:R:3 energy=-0.025255179367229676 pbc="F F F"
Ne       0.00000000       0.00000000       0.00000000       0.00000000       0.00000000       0.00080648
Ne       0.00000000       0.00000000       4.23636364       0.00000000       0.00000000      -0.00080648
2
Properties=species:S:1:pos:R:3:forces:R:3 energy=-0.02520890969488984 pbc="F F F"
Ne       0.00000000       0.00000000       0.00000000       0.00000000       0.00000000       0.00076922
Ne       0.00000000       0.00000000       4.29515152       0.00000000       0.00000000      -0.00076922
2
Properties=species:S:1:pos:R:3:forces:R:3 energy=-0.02516462645074975 pbc="F F F"
Ne       0.00000000       0.00000000       0.00000000       0.00000000       0.00000000       0.00073765
Ne       0.00000000       0.00000000       4.35393939       0.00000000       0.00000000      -0.00073765
2
Properties=species:S:1:pos:R:3:forces:R:3 energy=-0.025122195410578925 pbc="F F F"
Ne       0.00000000       0.00000000       0.00000000       0.00000000       0.00000000       0.00070538
Ne       0.00000000       0.00000000       4.41272727       0.00000000       0.00000000      -0.00070538
2
Properties=species:S:1:pos:R:3:forces:R:3 energy=-0.02508177969091074 pbc="F F F"
Ne       0.00000000       0.00000000       0.00000000       0.00000000       0.00000000       0.00066873
Ne       0.00000000       0.00000000       4.47151515       0.00000000       0.00000000      -0.00066873
2
Properties=species:S:1:pos:R:3:forces:R:3 energy=-0.02504366909689904 pbc="F F F"
Ne       0.00000000       0.00000000       0.00000000       0.00000000       0.00000000       0.00062709
Ne       0.00000000       0.00000000       4.53030303       0.00000000       0.00000000      -0.00062709
2
Properties=species:S:1:pos:R:3:forces:R:3 energy=-0.025008106531589445 pbc="F F F"
Ne       0.00000000       0.00000000       0.00000000       0.00000000       0.00000000       0.00058263
Ne       0.00000000       0.00000000       4.58909091       0.00000000       0.00000000      -0.00058263
2
Properties=species:S:1:pos:R:3:forces:R:3 energy=-0.02497513917579695 pbc="F F F"
Ne       0.00000000       0.00000000       0.00000000       0.00000000       0.00000000       0.00053952
Ne       0.00000000       0.00000000       4.64787879       0.00000000       0.00000000      -0.00053952
2
Properties=species:S:1:pos:R:3:forces:R:3 energy=-0.024944544229786064 pbc="F F F"
Ne       0.00000000       0.00000000       0.00000000       0.00000000       0.00000000       0.00050286
Ne       0.00000000       0.00000000       4.70666667       0.00000000       0.00000000      -0.00050286
2
Properties=species:S:1:pos:R:3:forces:R:3 energy=-0.02491579601087274 pbc="F F F"
Ne       0.00000000       0.00000000       0.00000000       0.00000000       0.00000000       0.00047730
Ne       0.00000000       0.00000000       4.76545455       0.00000000       0.00000000      -0.00047730
2
Properties=species:S:1:pos:R:3:forces:R:3 energy=-0.024888148281040096 pbc="F F F"
Ne       0.00000000       0.00000000       0.00000000       0.00000000       0.00000000       0.00046576
Ne       0.00000000       0.00000000       4.82424242       0.00000000       0.00000000      -0.00046576
2
Properties=species:S:1:pos:R:3:forces:R:3 energy=-0.024860756958780775 pbc="F F F"
Ne       0.00000000       0.00000000       0.00000000       0.00000000       0.00000000       0.00046835
Ne       0.00000000       0.00000000       4.88303030       0.00000000       0.00000000      -0.00046835
2
Properties=species:S:1:pos:R:3:forces:R:3 energy=-0.024832860876421618 pbc="F F F"
Ne       0.00000000       0.00000000       0.00000000       0.00000000       0.00000000       0.00048213
Ne       0.00000000       0.00000000       4.94181818       0.00000000       0.00000000      -0.00048213
2
Properties=species:S:1:pos:R:3:forces:R:3 energy=-0.02480395540210029 pbc="F F F"
Ne       0.00000000       0.00000000       0.00000000       0.00000000       0.00000000       0.00050169
Ne       0.00000000       0.00000000       5.00060606       0.00000000       0.00000000      -0.00050169
2
Properties=species:S:1:pos:R:3:forces:R:3 energy=-0.024773881549749143 pbc="F F F"
Ne       0.00000000       0.00000000       0.00000000       0.00000000       0.00000000       0.00052086
Ne       0.00000000       0.00000000       5.05939394       0.00000000       0.00000000      -0.00052086
2
Properties=species:S:1:pos:R:3:forces:R:3 energy=-0.024742820447156325 pbc="F F F"
Ne       0.00000000       0.00000000       0.00000000       0.00000000       0.00000000       0.00053469
Ne       0.00000000       0.00000000       5.11818182       0.00000000       0.00000000      -0.00053469
2
Properties=species:S:1:pos:R:3:forces:R:3 energy=-0.024711165011439388 pbc="F F F"
Ne       0.00000000       0.00000000       0.00000000       0.00000000       0.00000000       0.00054107
Ne       0.00000000       0.00000000       5.17696970       0.00000000       0.00000000      -0.00054107
2
Properties=species:S:1:pos:R:3:forces:R:3 energy=-0.024679331005181052 pbc="F F F"
Ne       0.00000000       0.00000000       0.00000000       0.00000000       0.00000000       0.00054118
Ne       0.00000000       0.00000000       5.23575758       0.00000000       0.00000000      -0.00054118
2
Properties=species:S:1:pos:R:3:forces:R:3 energy=-0.0246475981794964 pbc="F F F"
Ne       0.00000000       0.00000000       0.00000000       0.00000000       0.00000000       0.00053810
Ne       0.00000000       0.00000000       5.29454545       0.00000000       0.00000000      -0.00053810
2
Properties=species:S:1:pos:R:3:forces:R:3 energy=-0.02461608368965428 pbc="F F F"
Ne       0.00000000       0.00000000       0.00000000       0.00000000       0.00000000       0.00053374
Ne       0.00000000       0.00000000       5.35333333       0.00000000       0.00000000      -0.00053374
2
Properties=species:S:1:pos:R:3:forces:R:3 energy=-0.02458491255510673 pbc="F F F"
Ne       0.00000000       0.00000000       0.00000000       0.00000000       0.00000000       0.00052552
Ne       0.00000000       0.00000000       5.41212121       0.00000000       0.00000000      -0.00052552
2
Properties=species:S:1:pos:R:3:forces:R:3 energy=-0.024554498869409313 pbc="F F F"
Ne       0.00000000       0.00000000       0.00000000       0.00000000       0.00000000       0.00050705
Ne       0.00000000       0.00000000       5.47090909       0.00000000       0.00000000      -0.00050705
2
Properties=species:S:1:pos:R:3:forces:R:3 energy=-0.024525569346395566 pbc="F F F"
Ne       0.00000000       0.00000000       0.00000000       0.00000000       0.00000000       0.00047477
Ne       0.00000000       0.00000000       5.52969697       0.00000000       0.00000000      -0.00047477
2
Properties=species:S:1:pos:R:3:forces:R:3 energy=-0.02449894482147649 pbc="F F F"
Ne       0.00000000       0.00000000       0.00000000       0.00000000       0.00000000       0.00042885
Ne       0.00000000       0.00000000       5.58848485       0.00000000       0.00000000      -0.00042885
2
Properties=species:S:1:pos:R:3:forces:R:3 energy=-0.024475376388364643 pbc="F F F"
Ne       0.00000000       0.00000000       0.00000000       0.00000000       0.00000000       0.00037139
Ne       0.00000000       0.00000000       5.64727273       0.00000000       0.00000000      -0.00037139
2
Properties=species:S:1:pos:R:3:forces:R:3 energy=-0.02445544206264096 pbc="F F F"
Ne       0.00000000       0.00000000       0.00000000       0.00000000       0.00000000       0.00030591
Ne       0.00000000       0.00000000       5.70606061       0.00000000       0.00000000      -0.00030591
2
Properties=species:S:1:pos:R:3:forces:R:3 energy=-0.024439462739985526 pbc="F F F"
Ne       0.00000000       0.00000000       0.00000000       0.00000000       0.00000000       0.00023738
Ne       0.00000000       0.00000000       5.76484848       0.00000000       0.00000000      -0.00023738
2
Properties=species:S:1:pos:R:3:forces:R:3 energy=-0.024427377646438708 pbc="F F F"
Ne       0.00000000       0.00000000       0.00000000       0.00000000       0.00000000       0.00017615
Ne       0.00000000       0.00000000       5.82363636       0.00000000       0.00000000      -0.00017615
2
Properties=species:S:1:pos:R:3:forces:R:3 energy=-0.02441845999746938 pbc="F F F"
Ne       0.00000000       0.00000000       0.00000000       0.00000000       0.00000000       0.00013018
Ne       0.00000000       0.00000000       5.88242424       0.00000000       0.00000000      -0.00013018
2
Properties=species:S:1:pos:R:3:forces:R:3 energy=-0.02441175324054332 pbc="F F F"
Ne       0.00000000       0.00000000       0.00000000       0.00000000       0.00000000       0.00010040
Ne       0.00000000       0.00000000       5.94121212       0.00000000       0.00000000      -0.00010040
2
Properties=species:S:1:pos:R:3:forces:R:3 energy=-0.024406344498918132 pbc="F F F"
Ne       0.00000000       0.00000000       0.00000000       0.00000000       0.00000000       0.00008638
Ne       0.00000000       0.00000000       6.00000000       0.00000000       0.00000000      -0.00008638
