2
Properties=species:S:1:pos:R:3:forces:R:3 energy=20185.69599759852 pbc="F F F"
Np       0.00000000       0.00000000       0.00000000       0.00000000       0.00000000 -362678.93750000
Np       0.00000000       0.00000000       0.18000000       0.00000000       0.00000000  362678.93750000
2
Properties=species:S:1:pos:R:3:forces:R:3 energy=7649.50410306727 pbc="F F F"
Np       0.00000000       0.00000000       0.00000000       0.00000000       0.00000000 -116723.39843750
Np       0.00000000       0.00000000       0.23878788       0.00000000       0.00000000  116723.39843750
2
Properties=species:S:1:pos:R:3:forces:R:3 energy=3305.706007364145 pbc="F F F"
Np       0.00000000       0.00000000       0.00000000       0.00000000       0.00000000  -44145.57421875
Np       0.00000000       0.00000000       0.29757576       0.00000000       0.00000000   44145.57421875
2
Properties=species:S:1:pos:R:3:forces:R:3 energy=1584.3633559969574 pbc="F F F"
Np       0.00000000       0.00000000       0.00000000       0.00000000       0.00000000  -18507.08203125
Np       0.00000000       0.00000000       0.35636364       0.00000000       0.00000000   18507.08203125
2
Properties=species:S:1:pos:R:3:forces:R:3 energy=836.6853774813324 pbc="F F F"
Np       0.00000000       0.00000000       0.00000000       0.00000000       0.00000000   -8402.04589844
Np       0.00000000       0.00000000       0.41515152       0.00000000       0.00000000    8402.04589844
2
Properties=species:S:1:pos:R:3:forces:R:3 energy=486.1786025789886 pbc="F F F"
Np       0.00000000       0.00000000       0.00000000       0.00000000       0.00000000   -4103.52587891
Np       0.00000000       0.00000000       0.47393939       0.00000000       0.00000000    4103.52587891
2
Properties=species:S:1:pos:R:3:forces:R:3 energy=309.2582534832374 pbc="F F F"
Np       0.00000000       0.00000000       0.00000000       0.00000000       0.00000000   -2160.55468750
Np       0.00000000       0.00000000       0.53272727       0.00000000       0.00000000    2160.55468750
2
Properties=species:S:1:pos:R:3:forces:R:3 energy=212.70460361890756 pbc="F F F"
Np       0.00000000       0.00000000       0.00000000       0.00000000       0.00000000   -1233.33825684
Np       0.00000000       0.00000000       0.59151515       0.00000000       0.00000000    1233.33825684
2
Properties=species:S:1:pos:R:3:forces:R:3 energy=155.38090371842083 pbc="F F F"
Np       0.00000000       0.00000000       0.00000000       0.00000000       0.00000000    -768.19421387
Np       0.00000000       0.00000000       0.65030303       0.00000000       0.00000000     768.19421387
2
Properties=species:S:1:pos:R:3:forces:R:3 energy=118.06522996632356 pbc="F F F"
Np       0.00000000       0.00000000       0.00000000       0.00000000       0.00000000    -527.19531250
Np       0.00000000       0.00000000       0.70909091       0.00000000       0.00000000     527.19531250
2
Properties=species:S:1:pos:R:3:forces:R:3 energy=91.21308011698625 pbc="F F F"
Np       0.00000000       0.00000000       0.00000000       0.00000000       0.00000000    -399.10055542
Np       0.00000000       0.00000000       0.76787879       0.00000000       0.00000000     399.10055542
2
Properties=species:S:1:pos:R:3:forces:R:3 energy=70.03929031635695 pbc="F F F"
Np       0.00000000       0.00000000       0.00000000       0.00000000       0.00000000    -329.50103760
Np       0.00000000       0.00000000       0.82666667       0.00000000       0.00000000     329.50103760
2
Properties=species:S:1:pos:R:3:forces:R:3 energy=51.4318458319417 pbc="F F F"
Np       0.00000000       0.00000000       0.00000000       0.00000000       0.00000000    -309.67434692
Np       0.00000000       0.00000000       0.88545455       0.00000000       0.00000000     309.67434692
2
Properties=species:S:1:pos:R:3:forces:R:3 energy=32.67936663351513 pbc="F F F"
Np       0.00000000       0.00000000       0.00000000       0.00000000       0.00000000    -329.63034058
Np       0.00000000       0.00000000       0.94424242       0.00000000       0.00000000     329.63034058
2
Properties=species:S:1:pos:R:3:forces:R:3 energy=27.4084244397071 pbc="F F F"
Np       0.00000000       0.00000000       0.00000000       0.00000000       0.00000000      -7.16063738
Np       0.00000000       0.00000000       1.00303030       0.00000000       0.00000000       7.16063738
2
Properties=species:S:1:pos:R:3:forces:R:3 energy=23.10613324116821 pbc="F F F"
Np       0.00000000       0.00000000       0.00000000       0.00000000       0.00000000     -80.05269623
Np       0.00000000       0.00000000       1.06181818       0.00000000       0.00000000      80.05269623
2
Properties=species:S:1:pos:R:3:forces:R:3 energy=18.213765811508022 pbc="F F F"
Np       0.00000000       0.00000000       0.00000000       0.00000000       0.00000000     -84.26887512
Np       0.00000000       0.00000000       1.12060606       0.00000000       0.00000000      84.26887512
2
Properties=species:S:1:pos:R:3:forces:R:3 energy=13.78518097110202 pbc="F F F"
Np       0.00000000       0.00000000       0.00000000       0.00000000       0.00000000     -66.41499329
Np       0.00000000       0.00000000       1.17939394       0.00000000       0.00000000      66.41499329
2
Properties=species:S:1:pos:R:3:forces:R:3 energy=10.084825054522861 pbc="F F F"
Np       0.00000000       0.00000000       0.00000000       0.00000000       0.00000000     -62.90015411
Np       0.00000000       0.00000000       1.23818182       0.00000000       0.00000000      62.90015411
2
Properties=species:S:1:pos:R:3:forces:R:3 energy=6.145230791739978 pbc="F F F"
Np       0.00000000       0.00000000       0.00000000       0.00000000       0.00000000     -70.87884521
Np       0.00000000       0.00000000       1.29696970       0.00000000       0.00000000      70.87884521
2
Properties=species:S:1:pos:R:3:forces:R:3 energy=1.8859101171814892 pbc="F F F"
Np       0.00000000       0.00000000       0.00000000       0.00000000       0.00000000     -72.90348053
Np       0.00000000       0.00000000       1.35575758       0.00000000       0.00000000      72.90348053
2
Properties=species:S:1:pos:R:3:forces:R:3 energy=-2.3358675933442106 pbc="F F F"
Np       0.00000000       0.00000000       0.00000000       0.00000000       0.00000000     -70.29202271
Np       0.00000000       0.00000000       1.41454545       0.00000000       0.00000000      70.29202271
2
Properties=species:S:1:pos:R:3:forces:R:3 energy=-6.347977375795914 pbc="F F F"
Np       0.00000000       0.00000000       0.00000000       0.00000000       0.00000000     -65.81887054
Np       0.00000000       0.00000000       1.47333333       0.00000000       0.00000000      65.81887054
2
Properties=species:S:1:pos:R:3:forces:R:3 energy=-9.962889514214348 pbc="F F F"
Np       0.00000000       0.00000000       0.00000000       0.00000000       0.00000000     -55.69806290
Np       0.00000000       0.00000000       1.53212121       0.00000000       0.00000000      55.69806290
2
Properties=species:S:1:pos:R:3:forces:R:3 energy=-12.736698954492491 pbc="F F F"
Np       0.00000000       0.00000000       0.00000000       0.00000000       0.00000000     -37.90594482
Np       0.00000000       0.00000000       1.59090909       0.00000000       0.00000000      37.90594482
2
Properties=species:S:1:pos:R:3:forces:R:3 energy=-14.444743692144897 pbc="F F F"
Np       0.00000000       0.00000000       0.00000000       0.00000000       0.00000000     -21.27153206
Np       0.00000000       0.00000000       1.64969697       0.00000000       0.00000000      21.27153206
2
Properties=species:S:1:pos:R:3:forces:R:3 energy=-15.395620148125188 pbc="F F F"
Np       0.00000000       0.00000000       0.00000000       0.00000000       0.00000000     -12.29748440
Np       0.00000000       0.00000000       1.70848485       0.00000000       0.00000000      12.29748440
2
Properties=species:S:1:pos:R:3:forces:R:3 energy=-15.989639526368043 pbc="F F F"
Np       0.00000000       0.00000000       0.00000000       0.00000000       0.00000000      -8.41124535
Np       0.00000000       0.00000000       1.76727273       0.00000000       0.00000000       8.41124535
2
Properties=species:S:1:pos:R:3:forces:R:3 energy=-16.420480429343684 pbc="F F F"
Np       0.00000000       0.00000000       0.00000000       0.00000000       0.00000000      -6.44601631
Np       0.00000000       0.00000000       1.82606061       0.00000000       0.00000000       6.44601631
2
Properties=species:S:1:pos:R:3:forces:R:3 energy=-16.767534986107687 pbc="F F F"
Np       0.00000000       0.00000000       0.00000000       0.00000000       0.00000000      -5.51729774
Np       0.00000000       0.00000000       1.88484848       0.00000000       0.00000000       5.51729774
2
Properties=species:S:1:pos:R:3:forces:R:3 energy=-17.085213801654795 pbc="F F F"
Np       0.00000000       0.00000000       0.00000000       0.00000000       0.00000000      -5.39100361
Np       0.00000000       0.00000000       1.94363636       0.00000000       0.00000000       5.39100361
2
Properties=species:S:1:pos:R:3:forces:R:3 energy=-17.405760224484045 pbc="F F F"
Np       0.00000000       0.00000000       0.00000000       0.00000000       0.00000000      -5.47466230
Np       0.00000000       0.00000000       2.00242424       0.00000000       0.00000000       5.47466230
2
Properties=species:S:1:pos:R:3:forces:R:3 energy=-17.715501948771625 pbc="F F F"
Np       0.00000000       0.00000000       0.00000000       0.00000000       0.00000000      -4.89533234
Np       0.00000000       0.00000000       2.06121212       0.00000000       0.00000000       4.89533234
2
Properties=species:S:1:pos:R:3:forces:R:3 energy=-17.961379894083564 pbc="F F F"
Np       0.00000000       0.00000000       0.00000000       0.00000000       0.00000000      -3.33359241
Np       0.00000000       0.00000000       2.12000000       0.00000000       0.00000000       3.33359241
2
Properties=species:S:1:pos:R:3:forces:R:3 energy=-18.099261295559728 pbc="F F F"
Np       0.00000000       0.00000000       0.00000000       0.00000000       0.00000000      -1.35665500
Np       0.00000000       0.00000000       2.17878788       0.00000000       0.00000000       1.35665500
2
Properties=species:S:1:pos:R:3:forces:R:3 energy=-18.126839623837636 pbc="F F F"
Np       0.00000000       0.00000000       0.00000000       0.00000000       0.00000000       0.33515316
Np       0.00000000       0.00000000       2.23757576       0.00000000       0.00000000      -0.33515316
2
Properties=species:S:1:pos:R:3:forces:R:3 energy=-18.070672142373567 pbc="F F F"
Np       0.00000000       0.00000000       0.00000000       0.00000000       0.00000000       1.48567665
Np       0.00000000       0.00000000       2.29636364       0.00000000       0.00000000      -1.48567665
2
Properties=species:S:1:pos:R:3:forces:R:3 energy=-17.961561847337855 pbc="F F F"
Np       0.00000000       0.00000000       0.00000000       0.00000000       0.00000000       2.15791345
Np       0.00000000       0.00000000       2.35515152       0.00000000       0.00000000      -2.15791345
2
Properties=species:S:1:pos:R:3:forces:R:3 energy=-17.823780897154354 pbc="F F F"
Np       0.00000000       0.00000000       0.00000000       0.00000000       0.00000000       2.47931814
Np       0.00000000       0.00000000       2.41393939       0.00000000       0.00000000      -2.47931814
2
Properties=species:S:1:pos:R:3:forces:R:3 energy=-17.675427312037357 pbc="F F F"
Np       0.00000000       0.00000000       0.00000000       0.00000000       0.00000000       2.52542782
Np       0.00000000       0.00000000       2.47272727       0.00000000       0.00000000      -2.52542782
2
Properties=species:S:1:pos:R:3:forces:R:3 energy=-17.53127254413006 pbc="F F F"
Np       0.00000000       0.00000000       0.00000000       0.00000000       0.00000000       2.34881449
Np       0.00000000       0.00000000       2.53151515       0.00000000       0.00000000      -2.34881449
2
Properties=species:S:1:pos:R:3:forces:R:3 energy=-17.40139216591297 pbc="F F F"
Np       0.00000000       0.00000000       0.00000000       0.00000000       0.00000000       2.06534886
Np       0.00000000       0.00000000       2.59030303       0.00000000       0.00000000      -2.06534886
2
Properties=species:S:1:pos:R:3:forces:R:3 energy=-17.287383433138274 pbc="F F F"
Np       0.00000000       0.00000000       0.00000000       0.00000000       0.00000000       1.83338654
Np       0.00000000       0.00000000       2.64909091       0.00000000       0.00000000      -1.83338654
2
Properties=species:S:1:pos:R:3:forces:R:3 energy=-17.18273351715758 pbc="F F F"
Np       0.00000000       0.00000000       0.00000000       0.00000000       0.00000000       1.75576138
Np       0.00000000       0.00000000       2.70787879       0.00000000       0.00000000      -1.75576138
2
Properties=species:S:1:pos:R:3:forces:R:3 energy=-17.077843397864292 pbc="F F F"
Np       0.00000000       0.00000000       0.00000000       0.00000000       0.00000000       1.83362639
Np       0.00000000       0.00000000       2.76666667       0.00000000       0.00000000      -1.83362639
2
Properties=species:S:1:pos:R:3:forces:R:3 energy=-16.965730696721547 pbc="F F F"
Np       0.00000000       0.00000000       0.00000000       0.00000000       0.00000000       1.98234057
Np       0.00000000       0.00000000       2.82545455       0.00000000       0.00000000      -1.98234057
2
Properties=species:S:1:pos:R:3:forces:R:3 energy=-16.84576272550401 pbc="F F F"
Np       0.00000000       0.00000000       0.00000000       0.00000000       0.00000000       2.08176517
Np       0.00000000       0.00000000       2.88424242       0.00000000       0.00000000      -2.08176517
2
Properties=species:S:1:pos:R:3:forces:R:3 energy=-16.723537863215256 pbc="F F F"
Np       0.00000000       0.00000000       0.00000000       0.00000000       0.00000000       2.05330276
Np       0.00000000       0.00000000       2.94303030       0.00000000       0.00000000      -2.05330276
2
Properties=species:S:1:pos:R:3:forces:R:3 energy=-16.606630375329562 pbc="F F F"
Np       0.00000000       0.00000000       0.00000000       0.00000000       0.00000000       1.91058350
Np       0.00000000       0.00000000       3.00181818       0.00000000       0.00000000      -1.91058350
2
Properties=species:S:1:pos:R:3:forces:R:3 energy=-16.4996352107429 pbc="F F F"
Np       0.00000000       0.00000000       0.00000000       0.00000000       0.00000000       1.72965467
Np       0.00000000       0.00000000       3.06060606       0.00000000       0.00000000      -1.72965467
2
Properties=species:S:1:pos:R:3:forces:R:3 energy=-16.40272015943385 pbc="F F F"
Np       0.00000000       0.00000000       0.00000000       0.00000000       0.00000000       1.57443261
Np       0.00000000       0.00000000       3.11939394       0.00000000       0.00000000      -1.57443261
2
Properties=species:S:1:pos:R:3:forces:R:3 energy=-16.313739397489407 pbc="F F F"
Np       0.00000000       0.00000000       0.00000000       0.00000000       0.00000000       1.45804441
Np       0.00000000       0.00000000       3.17818182       0.00000000       0.00000000      -1.45804441
2
Properties=species:S:1:pos:R:3:forces:R:3 energy=-16.23089585435672 pbc="F F F"
Np       0.00000000       0.00000000       0.00000000       0.00000000       0.00000000       1.36195171
Np       0.00000000       0.00000000       3.23696970       0.00000000       0.00000000      -1.36195171
2
Properties=species:S:1:pos:R:3:forces:R:3 energy=-16.153517820518882 pbc="F F F"
Np       0.00000000       0.00000000       0.00000000       0.00000000       0.00000000       1.27101934
Np       0.00000000       0.00000000       3.29575758       0.00000000       0.00000000      -1.27101934
2
Properties=species:S:1:pos:R:3:forces:R:3 energy=-16.081312958767583 pbc="F F F"
Np       0.00000000       0.00000000       0.00000000       0.00000000       0.00000000       1.18781459
Np       0.00000000       0.00000000       3.35454545       0.00000000       0.00000000      -1.18781459
2
Properties=species:S:1:pos:R:3:forces:R:3 energy=-16.013439438090224 pbc="F F F"
Np       0.00000000       0.00000000       0.00000000       0.00000000       0.00000000       1.12614501
Np       0.00000000       0.00000000       3.41333333       0.00000000       0.00000000      -1.12614501
2
Properties=species:S:1:pos:R:3:forces:R:3 energy=-15.94819040685536 pbc="F F F"
Np       0.00000000       0.00000000       0.00000000       0.00000000       0.00000000       1.10077071
Np       0.00000000       0.00000000       3.47212121       0.00000000       0.00000000      -1.10077071
2
Properties=species:S:1:pos:R:3:forces:R:3 energy=-15.883091178893954 pbc="F F F"
Np       0.00000000       0.00000000       0.00000000       0.00000000       0.00000000       1.12236929
Np       0.00000000       0.00000000       3.53090909       0.00000000       0.00000000      -1.12236929
2
Properties=species:S:1:pos:R:3:forces:R:3 energy=-15.815220621744006 pbc="F F F"
Np       0.00000000       0.00000000       0.00000000       0.00000000       0.00000000       1.19489646
Np       0.00000000       0.00000000       3.58969697       0.00000000       0.00000000      -1.19489646
2
Properties=species:S:1:pos:R:3:forces:R:3 energy=-15.741746231298492 pbc="F F F"
Np       0.00000000       0.00000000       0.00000000       0.00000000       0.00000000       1.31034422
Np       0.00000000       0.00000000       3.64848485       0.00000000       0.00000000      -1.31034422
2
Properties=species:S:1:pos:R:3:forces:R:3 energy=-15.660802529207233 pbc="F F F"
Np       0.00000000       0.00000000       0.00000000       0.00000000       0.00000000       1.44333732
Np       0.00000000       0.00000000       3.70727273       0.00000000       0.00000000      -1.44333732
2
Properties=species:S:1:pos:R:3:forces:R:3 energy=-15.572491403878345 pbc="F F F"
Np       0.00000000       0.00000000       0.00000000       0.00000000       0.00000000       1.55347943
Np       0.00000000       0.00000000       3.76606061       0.00000000       0.00000000      -1.55347943
2
Properties=species:S:1:pos:R:3:forces:R:3 energy=-15.479428603875421 pbc="F F F"
Np       0.00000000       0.00000000       0.00000000       0.00000000       0.00000000       1.59895432
Np       0.00000000       0.00000000       3.82484848       0.00000000       0.00000000      -1.59895432
2
Properties=species:S:1:pos:R:3:forces:R:3 energy=-15.386269736439687 pbc="F F F"
Np       0.00000000       0.00000000       0.00000000       0.00000000       0.00000000       1.55477691
Np       0.00000000       0.00000000       3.88363636       0.00000000       0.00000000      -1.55477691
2
Properties=species:S:1:pos:R:3:forces:R:3 energy=-15.298337128529848 pbc="F F F"
Np       0.00000000       0.00000000       0.00000000       0.00000000       0.00000000       1.42413187
Np       0.00000000       0.00000000       3.94242424       0.00000000       0.00000000      -1.42413187
2
Properties=species:S:1:pos:R:3:forces:R:3 energy=-15.219963180492892 pbc="F F F"
Np       0.00000000       0.00000000       0.00000000       0.00000000       0.00000000       1.23593199
Np       0.00000000       0.00000000       4.00121212       0.00000000       0.00000000      -1.23593199
2
Properties=species:S:1:pos:R:3:forces:R:3 energy=-15.153346058254707 pbc="F F F"
Np       0.00000000       0.00000000       0.00000000       0.00000000       0.00000000       1.03100741
Np       0.00000000       0.00000000       4.06000000       0.00000000       0.00000000      -1.03100741
2
Properties=species:S:1:pos:R:3:forces:R:3 energy=-15.098343788366762 pbc="F F F"
Np       0.00000000       0.00000000       0.00000000       0.00000000       0.00000000       0.84582430
Np       0.00000000       0.00000000       4.11878788       0.00000000       0.00000000      -0.84582430
2
Properties=species:S:1:pos:R:3:forces:R:3 energy=-15.053074043123393 pbc="F F F"
Np       0.00000000       0.00000000       0.00000000       0.00000000       0.00000000       0.70208740
Np       0.00000000       0.00000000       4.17757576       0.00000000       0.00000000      -0.70208740
2
Properties=species:S:1:pos:R:3:forces:R:3 energy=-15.014870878641778 pbc="F F F"
Np       0.00000000       0.00000000       0.00000000       0.00000000       0.00000000       0.60512120
Np       0.00000000       0.00000000       4.23636364       0.00000000       0.00000000      -0.60512120
2
Properties=species:S:1:pos:R:3:forces:R:3 energy=-14.981134306622387 pbc="F F F"
Np       0.00000000       0.00000000       0.00000000       0.00000000       0.00000000       0.54833466
Np       0.00000000       0.00000000       4.29515152       0.00000000       0.00000000      -0.54833466
2
Properties=species:S:1:pos:R:3:forces:R:3 energy=-14.949856085679542 pbc="F F F"
Np       0.00000000       0.00000000       0.00000000       0.00000000       0.00000000       0.51928312
Np       0.00000000       0.00000000       4.35393939       0.00000000       0.00000000      -0.51928312
2
Properties=species:S:1:pos:R:3:forces:R:3 energy=-14.919807379769841 pbc="F F F"
Np       0.00000000       0.00000000       0.00000000       0.00000000       0.00000000       0.50422066
Np       0.00000000       0.00000000       4.41272727       0.00000000       0.00000000      -0.50422066
2
Properties=species:S:1:pos:R:3:forces:R:3 energy=-14.890544670307381 pbc="F F F"
Np       0.00000000       0.00000000       0.00000000       0.00000000       0.00000000       0.49062794
Np       0.00000000       0.00000000       4.47151515       0.00000000       0.00000000      -0.49062794
2
Properties=species:S:1:pos:R:3:forces:R:3 energy=-14.862289694570212 pbc="F F F"
Np       0.00000000       0.00000000       0.00000000       0.00000000       0.00000000       0.46851960
Np       0.00000000       0.00000000       4.53030303       0.00000000       0.00000000      -0.46851960
2
Properties=species:S:1:pos:R:3:forces:R:3 energy=-14.83575388092708 pbc="F F F"
Np       0.00000000       0.00000000       0.00000000       0.00000000       0.00000000       0.43147007
Np       0.00000000       0.00000000       4.58909091       0.00000000       0.00000000      -0.43147007
2
Properties=species:S:1:pos:R:3:forces:R:3 energy=-14.811894303247106 pbc="F F F"
Np       0.00000000       0.00000000       0.00000000       0.00000000       0.00000000       0.37755820
Np       0.00000000       0.00000000       4.64787879       0.00000000       0.00000000      -0.37755820
2
Properties=species:S:1:pos:R:3:forces:R:3 energy=-14.79163628205095 pbc="F F F"
Np       0.00000000       0.00000000       0.00000000       0.00000000       0.00000000       0.30981234
Np       0.00000000       0.00000000       4.70666667       0.00000000       0.00000000      -0.30981234
2
Properties=species:S:1:pos:R:3:forces:R:3 energy=-14.77559386923708 pbc="F F F"
Np       0.00000000       0.00000000       0.00000000       0.00000000       0.00000000       0.23569688
Np       0.00000000       0.00000000       4.76545455       0.00000000       0.00000000      -0.23569688
2
Properties=species:S:1:pos:R:3:forces:R:3 energy=-14.763850566345443 pbc="F F F"
Np       0.00000000       0.00000000       0.00000000       0.00000000       0.00000000       0.16532572
Np       0.00000000       0.00000000       4.82424242       0.00000000       0.00000000      -0.16532572
2
Properties=species:S:1:pos:R:3:forces:R:3 energy=-14.755884079321138 pbc="F F F"
Np       0.00000000       0.00000000       0.00000000       0.00000000       0.00000000       0.10869491
Np       0.00000000       0.00000000       4.88303030       0.00000000       0.00000000      -0.10869491
2
Properties=species:S:1:pos:R:3:forces:R:3 energy=-14.750666283255235 pbc="F F F"
Np       0.00000000       0.00000000       0.00000000       0.00000000       0.00000000       0.07249954
Np       0.00000000       0.00000000       4.94181818       0.00000000       0.00000000      -0.07249954
2
Properties=species:S:1:pos:R:3:forces:R:3 energy=-14.746931306238 pbc="F F F"
Np       0.00000000       0.00000000       0.00000000       0.00000000       0.00000000       0.05797239
Np       0.00000000       0.00000000       5.00060606       0.00000000       0.00000000      -0.05797239
2
Properties=species:S:1:pos:R:3:forces:R:3 energy=-14.74350930903399 pbc="F F F"
Np       0.00000000       0.00000000       0.00000000       0.00000000       0.00000000       0.06074985
Np       0.00000000       0.00000000       5.05939394       0.00000000       0.00000000      -0.06074985
2
Properties=species:S:1:pos:R:3:forces:R:3 energy=-14.739597189203739 pbc="F F F"
Np       0.00000000       0.00000000       0.00000000       0.00000000       0.00000000       0.07331461
Np       0.00000000       0.00000000       5.11818182       0.00000000       0.00000000      -0.07331461
2
Properties=species:S:1:pos:R:3:forces:R:3 energy=-14.734832020361765 pbc="F F F"
Np       0.00000000       0.00000000       0.00000000       0.00000000       0.00000000       0.08893625
Np       0.00000000       0.00000000       5.17696970       0.00000000       0.00000000      -0.08893625
2
Properties=species:S:1:pos:R:3:forces:R:3 energy=-14.72914126195245 pbc="F F F"
Np       0.00000000       0.00000000       0.00000000       0.00000000       0.00000000       0.10466406
Np       0.00000000       0.00000000       5.23575758       0.00000000       0.00000000      -0.10466406
2
Properties=species:S:1:pos:R:3:forces:R:3 energy=-14.722527114812939 pbc="F F F"
Np       0.00000000       0.00000000       0.00000000       0.00000000       0.00000000       0.12020770
Np       0.00000000       0.00000000       5.29454545       0.00000000       0.00000000      -0.12020770
2
Properties=species:S:1:pos:R:3:forces:R:3 energy=-14.715096053398721 pbc="F F F"
Np       0.00000000       0.00000000       0.00000000       0.00000000       0.00000000       0.13071617
Np       0.00000000       0.00000000       5.35333333       0.00000000       0.00000000      -0.13071617
2
Properties=species:S:1:pos:R:3:forces:R:3 energy=-14.70758128091792 pbc="F F F"
Np       0.00000000       0.00000000       0.00000000       0.00000000       0.00000000       0.11982384
Np       0.00000000       0.00000000       5.41212121       0.00000000       0.00000000      -0.11982384
2
Properties=species:S:1:pos:R:3:forces:R:3 energy=-14.701538181880993 pbc="F F F"
Np       0.00000000       0.00000000       0.00000000       0.00000000       0.00000000       0.08391874
Np       0.00000000       0.00000000       5.47090909       0.00000000       0.00000000      -0.08391874
2
Properties=species:S:1:pos:R:3:forces:R:3 energy=-14.697473105386003 pbc="F F F"
Np       0.00000000       0.00000000       0.00000000       0.00000000       0.00000000       0.05902196
Np       0.00000000       0.00000000       5.52969697       0.00000000       0.00000000      -0.05902196
2
Properties=species:S:1:pos:R:3:forces:R:3 energy=-14.694137500404642 pbc="F F F"
Np       0.00000000       0.00000000       0.00000000       0.00000000       0.00000000       0.05635587
Np       0.00000000       0.00000000       5.58848485       0.00000000       0.00000000      -0.05635587
2
Properties=species:S:1:pos:R:3:forces:R:3 energy=-14.690842521362033 pbc="F F F"
Np       0.00000000       0.00000000       0.00000000       0.00000000       0.00000000       0.05482482
Np       0.00000000       0.00000000       5.64727273       0.00000000       0.00000000      -0.05482482
2
Properties=species:S:1:pos:R:3:forces:R:3 energy=-14.687682907182227 pbc="F F F"
Np       0.00000000       0.00000000       0.00000000       0.00000000       0.00000000       0.05526712
Np       0.00000000       0.00000000       5.70606061       0.00000000       0.00000000      -0.05526712
2
Properties=species:S:1:pos:R:3:forces:R:3 energy=-14.683600024402091 pbc="F F F"
Np       0.00000000       0.00000000       0.00000000       0.00000000       0.00000000       0.09186324
Np       0.00000000       0.00000000       5.76484848       0.00000000       0.00000000      -0.09186324
2
Properties=species:S:1:pos:R:3:forces:R:3 energy=-14.676455401463967 pbc="F F F"
Np       0.00000000       0.00000000       0.00000000       0.00000000       0.00000000       0.14659864
Np       0.00000000       0.00000000       5.82363636       0.00000000       0.00000000      -0.14659864
2
Properties=species:S:1:pos:R:3:forces:R:3 energy=-14.667823579047718 pbc="F F F"
Np       0.00000000       0.00000000       0.00000000       0.00000000       0.00000000       0.13311695
Np       0.00000000       0.00000000       5.88242424       0.00000000       0.00000000      -0.13311695
2
Properties=species:S:1:pos:R:3:forces:R:3 energy=-14.661818251028835 pbc="F F F"
Np       0.00000000       0.00000000       0.00000000       0.00000000       0.00000000       0.06955455
Np       0.00000000       0.00000000       5.94121212       0.00000000       0.00000000      -0.06955455
2
Properties=species:S:1:pos:R:3:forces:R:3 energy=-14.658961085962607 pbc="F F F"
Np       0.00000000       0.00000000       0.00000000       0.00000000       0.00000000       0.03771560
Np       0.00000000       0.00000000       6.00000000       0.00000000       0.00000000      -0.03771560
