2
Properties=species:S:1:pos:R:3:forces:R:3 energy=110549.58857572352 pbc="F F F"
Np       0.00000000       0.00000000       0.00000000       0.00000000       0.00000000 -2859620.25000000
Np       0.00000000       0.00000000       0.10000000       0.00000000       0.00000000 2859620.25000000
2
Properties=species:S:1:pos:R:3:forces:R:3 energy=29511.97724759852 pbc="F F F"
Np       0.00000000       0.00000000       0.00000000       0.00000000       0.00000000 -569946.37500000
Np       0.00000000       0.00000000       0.15959596       0.00000000       0.00000000  569946.37500000
2
Properties=species:S:1:pos:R:3:forces:R:3 energy=10391.79463041102 pbc="F F F"
Np       0.00000000       0.00000000       0.00000000       0.00000000       0.00000000 -166547.35937500
Np       0.00000000       0.00000000       0.21919192       0.00000000       0.00000000  166547.35937500
2
Properties=species:S:1:pos:R:3:forces:R:3 energy=4270.91767728602 pbc="F F F"
Np       0.00000000       0.00000000       0.00000000       0.00000000       0.00000000  -59454.05078125
Np       0.00000000       0.00000000       0.27878788       0.00000000       0.00000000   59454.05078125
2
Properties=species:S:1:pos:R:3:forces:R:3 energy=1963.5056899813324 pbc="F F F"
Np       0.00000000       0.00000000       0.00000000       0.00000000       0.00000000  -23925.22265625
Np       0.00000000       0.00000000       0.33838384       0.00000000       0.00000000   23925.22265625
2
Properties=species:S:1:pos:R:3:forces:R:3 energy=998.2341445711761 pbc="F F F"
Np       0.00000000       0.00000000       0.00000000       0.00000000       0.00000000  -10501.35058594
Np       0.00000000       0.00000000       0.39797980       0.00000000       0.00000000   10501.35058594
2
Properties=species:S:1:pos:R:3:forces:R:3 energy=560.1743301180511 pbc="F F F"
Np       0.00000000       0.00000000       0.00000000       0.00000000       0.00000000   -4972.73681641
Np       0.00000000       0.00000000       0.45757576       0.00000000       0.00000000    4972.73681641
2
Properties=species:S:1:pos:R:3:forces:R:3 energy=345.7282241863624 pbc="F F F"
Np       0.00000000       0.00000000       0.00000000       0.00000000       0.00000000   -2540.82543945
Np       0.00000000       0.00000000       0.51717172       0.00000000       0.00000000    2540.82543945
2
Properties=species:S:1:pos:R:3:forces:R:3 energy=232.1459030447128 pbc="F F F"
Np       0.00000000       0.00000000       0.00000000       0.00000000       0.00000000   -1408.38854980
Np       0.00000000       0.00000000       0.57676768       0.00000000       0.00000000    1408.38854980
2
Properties=species:S:1:pos:R:3:forces:R:3 energy=166.66042944991418 pbc="F F F"
Np       0.00000000       0.00000000       0.00000000       0.00000000       0.00000000    -852.31896973
Np       0.00000000       0.00000000       0.63636364       0.00000000       0.00000000     852.31896973
2
Properties=species:S:1:pos:R:3:forces:R:3 energy=125.2519517427388 pbc="F F F"
Np       0.00000000       0.00000000       0.00000000       0.00000000       0.00000000    -568.37469482
Np       0.00000000       0.00000000       0.69595960       0.00000000       0.00000000     568.37469482
2
Properties=species:S:1:pos:R:3:forces:R:3 energy=96.2576433851007 pbc="F F F"
Np       0.00000000       0.00000000       0.00000000       0.00000000       0.00000000    -420.04971313
Np       0.00000000       0.00000000       0.75555556       0.00000000       0.00000000     420.04971313
2
Properties=species:S:1:pos:R:3:forces:R:3 energy=73.88670240038937 pbc="F F F"
Np       0.00000000       0.00000000       0.00000000       0.00000000       0.00000000    -339.12954712
Np       0.00000000       0.00000000       0.81515152       0.00000000       0.00000000     339.12954712
2
Properties=species:S:1:pos:R:3:forces:R:3 energy=54.75466833938604 pbc="F F F"
Np       0.00000000       0.00000000       0.00000000       0.00000000       0.00000000    -311.10980225
Np       0.00000000       0.00000000       0.87474747       0.00000000       0.00000000     311.10980225
2
Properties=species:S:1:pos:R:3:forces:R:3 energy=36.01971384752646 pbc="F F F"
Np       0.00000000       0.00000000       0.00000000       0.00000000       0.00000000    -339.49948120
Np       0.00000000       0.00000000       0.93434343       0.00000000       0.00000000     339.49948120
2
Properties=species:S:1:pos:R:3:forces:R:3 energy=27.21433636883035 pbc="F F F"
Np       0.00000000       0.00000000       0.00000000       0.00000000       0.00000000      46.42103958
Np       0.00000000       0.00000000       0.99393939       0.00000000       0.00000000     -46.42103958
2
Properties=species:S:1:pos:R:3:forces:R:3 energy=23.771134042653955 pbc="F F F"
Np       0.00000000       0.00000000       0.00000000       0.00000000       0.00000000     -80.69244385
Np       0.00000000       0.00000000       1.05353535       0.00000000       0.00000000      80.69244385
2
Properties=species:S:1:pos:R:3:forces:R:3 energy=18.847814146709197 pbc="F F F"
Np       0.00000000       0.00000000       0.00000000       0.00000000       0.00000000     -85.26926422
Np       0.00000000       0.00000000       1.11313131       0.00000000       0.00000000      85.26926422
2
Properties=species:S:1:pos:R:3:forces:R:3 energy=14.233238006400462 pbc="F F F"
Np       0.00000000       0.00000000       0.00000000       0.00000000       0.00000000     -68.05504608
Np       0.00000000       0.00000000       1.17272727       0.00000000       0.00000000      68.05504608
2
Properties=species:S:1:pos:R:3:forces:R:3 energy=10.451600389820134 pbc="F F F"
Np       0.00000000       0.00000000       0.00000000       0.00000000       0.00000000     -62.34533310
Np       0.00000000       0.00000000       1.23232323       0.00000000       0.00000000      62.34533310
2
Properties=species:S:1:pos:R:3:forces:R:3 energy=6.501923882164204 pbc="F F F"
Np       0.00000000       0.00000000       0.00000000       0.00000000       0.00000000     -70.35958862
Np       0.00000000       0.00000000       1.29191919       0.00000000       0.00000000      70.35958862
2
Properties=species:S:1:pos:R:3:forces:R:3 energy=2.1953390831420436 pbc="F F F"
Np       0.00000000       0.00000000       0.00000000       0.00000000       0.00000000     -72.96316528
Np       0.00000000       0.00000000       1.35151515       0.00000000       0.00000000      72.96316528
2
Properties=species:S:1:pos:R:3:forces:R:3 energy=-2.094114217898793 pbc="F F F"
Np       0.00000000       0.00000000       0.00000000       0.00000000       0.00000000     -70.50198364
Np       0.00000000       0.00000000       1.41111111       0.00000000       0.00000000      70.50198364
2
Properties=species:S:1:pos:R:3:forces:R:3 energy=-6.174740718941415 pbc="F F F"
Np       0.00000000       0.00000000       0.00000000       0.00000000       0.00000000     -66.08716583
Np       0.00000000       0.00000000       1.47070707       0.00000000       0.00000000      66.08716583
2
Properties=species:S:1:pos:R:3:forces:R:3 energy=-9.86121081800321 pbc="F F F"
Np       0.00000000       0.00000000       0.00000000       0.00000000       0.00000000     -56.14771271
Np       0.00000000       0.00000000       1.53030303       0.00000000       0.00000000      56.14771271
2
Properties=species:S:1:pos:R:3:forces:R:3 energy=-12.698243105399323 pbc="F F F"
Np       0.00000000       0.00000000       0.00000000       0.00000000       0.00000000     -38.23452377
Np       0.00000000       0.00000000       1.58989899       0.00000000       0.00000000      38.23452377
2
Properties=species:S:1:pos:R:3:forces:R:3 energy=-14.440435983271556 pbc="F F F"
Np       0.00000000       0.00000000       0.00000000       0.00000000       0.00000000     -21.31604004
Np       0.00000000       0.00000000       1.64949495       0.00000000       0.00000000      21.31604004
2
Properties=species:S:1:pos:R:3:forces:R:3 energy=-15.403059660097165 pbc="F F F"
Np       0.00000000       0.00000000       0.00000000       0.00000000       0.00000000     -12.23907661
Np       0.00000000       0.00000000       1.70909091       0.00000000       0.00000000      12.23907661
2
Properties=species:S:1:pos:R:3:forces:R:3 energy=-16.001491524675277 pbc="F F F"
Np       0.00000000       0.00000000       0.00000000       0.00000000       0.00000000      -8.34842205
Np       0.00000000       0.00000000       1.76868687       0.00000000       0.00000000       8.34842205
2
Properties=species:S:1:pos:R:3:forces:R:3 energy=-16.4347430882396 pbc="F F F"
Np       0.00000000       0.00000000       0.00000000       0.00000000       0.00000000      -6.39354753
Np       0.00000000       0.00000000       1.82828283       0.00000000       0.00000000       6.39354753
2
Properties=species:S:1:pos:R:3:forces:R:3 energy=-16.78421396428174 pbc="F F F"
Np       0.00000000       0.00000000       0.00000000       0.00000000       0.00000000      -5.49403095
Np       0.00000000       0.00000000       1.88787879       0.00000000       0.00000000       5.49403095
2
Properties=species:S:1:pos:R:3:forces:R:3 energy=-17.105922602008746 pbc="F F F"
Np       0.00000000       0.00000000       0.00000000       0.00000000       0.00000000      -5.39935446
Np       0.00000000       0.00000000       1.94747475       0.00000000       0.00000000       5.39935446
2
Properties=species:S:1:pos:R:3:forces:R:3 energy=-17.43117203971497 pbc="F F F"
Np       0.00000000       0.00000000       0.00000000       0.00000000       0.00000000      -5.46313810
Np       0.00000000       0.00000000       2.00707071       0.00000000       0.00000000       5.46313810
2
Properties=species:S:1:pos:R:3:forces:R:3 energy=-17.741916395818976 pbc="F F F"
Np       0.00000000       0.00000000       0.00000000       0.00000000       0.00000000      -4.78837872
Np       0.00000000       0.00000000       2.06666667       0.00000000       0.00000000       4.78837872
2
Properties=species:S:1:pos:R:3:forces:R:3 energy=-17.981615653289342 pbc="F F F"
Np       0.00000000       0.00000000       0.00000000       0.00000000       0.00000000      -3.12811446
Np       0.00000000       0.00000000       2.12626263       0.00000000       0.00000000       3.12811446
2
Properties=species:S:1:pos:R:3:forces:R:3 energy=-18.1080462779048 pbc="F F F"
Np       0.00000000       0.00000000       0.00000000       0.00000000       0.00000000      -1.12846196
Np       0.00000000       0.00000000       2.18585859       0.00000000       0.00000000       1.12846196
2
Properties=species:S:1:pos:R:3:forces:R:3 energy=-18.123458345501504 pbc="F F F"
Np       0.00000000       0.00000000       0.00000000       0.00000000       0.00000000       0.52128476
Np       0.00000000       0.00000000       2.24545455       0.00000000       0.00000000      -0.52128476
2
Properties=species:S:1:pos:R:3:forces:R:3 energy=-18.0572091073287 pbc="F F F"
Np       0.00000000       0.00000000       0.00000000       0.00000000       0.00000000       1.61189342
Np       0.00000000       0.00000000       2.30505051       0.00000000       0.00000000      -1.61189342
2
Properties=species:S:1:pos:R:3:forces:R:3 energy=-17.940719489828595 pbc="F F F"
Np       0.00000000       0.00000000       0.00000000       0.00000000       0.00000000       2.23077083
Np       0.00000000       0.00000000       2.36464646       0.00000000       0.00000000      -2.23077083
2
Properties=species:S:1:pos:R:3:forces:R:3 energy=-17.79809183404029 pbc="F F F"
Np       0.00000000       0.00000000       0.00000000       0.00000000       0.00000000       2.50606942
Np       0.00000000       0.00000000       2.42424242       0.00000000       0.00000000      -2.50606942
2
Properties=species:S:1:pos:R:3:forces:R:3 energy=-17.64746224379428 pbc="F F F"
Np       0.00000000       0.00000000       0.00000000       0.00000000       0.00000000       2.50677848
Np       0.00000000       0.00000000       2.48383838       0.00000000       0.00000000      -2.50677848
2
Properties=species:S:1:pos:R:3:forces:R:3 energy=-17.50359075248455 pbc="F F F"
Np       0.00000000       0.00000000       0.00000000       0.00000000       0.00000000       2.29484272
Np       0.00000000       0.00000000       2.54343434       0.00000000       0.00000000      -2.29484272
2
Properties=species:S:1:pos:R:3:forces:R:3 energy=-17.375488530684184 pbc="F F F"
Np       0.00000000       0.00000000       0.00000000       0.00000000       0.00000000       2.00579238
Np       0.00000000       0.00000000       2.60303030       0.00000000       0.00000000      -2.00579238
2
Properties=species:S:1:pos:R:3:forces:R:3 energy=-17.26280342247233 pbc="F F F"
Np       0.00000000       0.00000000       0.00000000       0.00000000       0.00000000       1.80014920
Np       0.00000000       0.00000000       2.66262626       0.00000000       0.00000000      -1.80014920
2
Properties=species:S:1:pos:R:3:forces:R:3 energy=-17.15751384841817 pbc="F F F"
Np       0.00000000       0.00000000       0.00000000       0.00000000       0.00000000       1.76247525
Np       0.00000000       0.00000000       2.72222222       0.00000000       0.00000000      -1.76247525
2
Properties=species:S:1:pos:R:3:forces:R:3 energy=-17.049791779866286 pbc="F F F"
Np       0.00000000       0.00000000       0.00000000       0.00000000       0.00000000       1.86992145
Np       0.00000000       0.00000000       2.78181818       0.00000000       0.00000000      -1.86992145
2
Properties=species:S:1:pos:R:3:forces:R:3 energy=-16.93379358877005 pbc="F F F"
Np       0.00000000       0.00000000       0.00000000       0.00000000       0.00000000       2.01891708
Np       0.00000000       0.00000000       2.84141414       0.00000000       0.00000000      -2.01891708
2
Properties=species:S:1:pos:R:3:forces:R:3 energy=-16.810789892756482 pbc="F F F"
Np       0.00000000       0.00000000       0.00000000       0.00000000       0.00000000       2.08789349
Np       0.00000000       0.00000000       2.90101010       0.00000000       0.00000000      -2.08789349
2
Properties=species:S:1:pos:R:3:forces:R:3 energy=-16.68773130498208 pbc="F F F"
Np       0.00000000       0.00000000       0.00000000       0.00000000       0.00000000       2.01971292
Np       0.00000000       0.00000000       2.96060606       0.00000000       0.00000000      -2.01971292
2
Properties=species:S:1:pos:R:3:forces:R:3 energy=-16.572020366187733 pbc="F F F"
Np       0.00000000       0.00000000       0.00000000       0.00000000       0.00000000       1.85423613
Np       0.00000000       0.00000000       3.02020202       0.00000000       0.00000000      -1.85423613
2
Properties=species:S:1:pos:R:3:forces:R:3 energy=-16.46697772631336 pbc="F F F"
Np       0.00000000       0.00000000       0.00000000       0.00000000       0.00000000       1.67447519
Np       0.00000000       0.00000000       3.07979798       0.00000000       0.00000000      -1.67447519
2
Properties=species:S:1:pos:R:3:forces:R:3 energy=-16.3716706478477 pbc="F F F"
Np       0.00000000       0.00000000       0.00000000       0.00000000       0.00000000       1.53113115
Np       0.00000000       0.00000000       3.13939394       0.00000000       0.00000000      -1.53113115
2
Properties=species:S:1:pos:R:3:forces:R:3 energy=-16.28376990996936 pbc="F F F"
Np       0.00000000       0.00000000       0.00000000       0.00000000       0.00000000       1.42283535
Np       0.00000000       0.00000000       3.19898990       0.00000000       0.00000000      -1.42283535
2
Properties=species:S:1:pos:R:3:forces:R:3 energy=-16.201821777550688 pbc="F F F"
Np       0.00000000       0.00000000       0.00000000       0.00000000       0.00000000       1.32815576
Np       0.00000000       0.00000000       3.25858586       0.00000000       0.00000000      -1.32815576
2
Properties=species:S:1:pos:R:3:forces:R:3 energy=-16.125392693556808 pbc="F F F"
Np       0.00000000       0.00000000       0.00000000       0.00000000       0.00000000       1.23773980
Np       0.00000000       0.00000000       3.31818182       0.00000000       0.00000000      -1.23773980
2
Properties=species:S:1:pos:R:3:forces:R:3 energy=-16.054046239929907 pbc="F F F"
Np       0.00000000       0.00000000       0.00000000       0.00000000       0.00000000       1.15999091
Np       0.00000000       0.00000000       3.37777778       0.00000000       0.00000000      -1.15999091
2
Properties=species:S:1:pos:R:3:forces:R:3 energy=-15.986566580598605 pbc="F F F"
Np       0.00000000       0.00000000       0.00000000       0.00000000       0.00000000       1.11065972
Np       0.00000000       0.00000000       3.43737374       0.00000000       0.00000000      -1.11065972
2
Properties=species:S:1:pos:R:3:forces:R:3 energy=-15.920818499436638 pbc="F F F"
Np       0.00000000       0.00000000       0.00000000       0.00000000       0.00000000       1.10374606
Np       0.00000000       0.00000000       3.49696970       0.00000000       0.00000000      -1.10374606
2
Properties=species:S:1:pos:R:3:forces:R:3 energy=-15.853987612148998 pbc="F F F"
Np       0.00000000       0.00000000       0.00000000       0.00000000       0.00000000       1.14787793
Np       0.00000000       0.00000000       3.55656566       0.00000000       0.00000000      -1.14787793
2
Properties=species:S:1:pos:R:3:forces:R:3 energy=-15.782984812881109 pbc="F F F"
Np       0.00000000       0.00000000       0.00000000       0.00000000       0.00000000       1.24263930
Np       0.00000000       0.00000000       3.61616162       0.00000000       0.00000000      -1.24263930
2
Properties=species:S:1:pos:R:3:forces:R:3 energy=-15.705173927722246 pbc="F F F"
Np       0.00000000       0.00000000       0.00000000       0.00000000       0.00000000       1.37206745
Np       0.00000000       0.00000000       3.67575758       0.00000000       0.00000000      -1.37206745
2
Properties=species:S:1:pos:R:3:forces:R:3 energy=-15.619437019602113 pbc="F F F"
Np       0.00000000       0.00000000       0.00000000       0.00000000       0.00000000       1.50155056
Np       0.00000000       0.00000000       3.73535354       0.00000000       0.00000000      -1.50155056
2
Properties=species:S:1:pos:R:3:forces:R:3 energy=-15.527099338336164 pbc="F F F"
Np       0.00000000       0.00000000       0.00000000       0.00000000       0.00000000       1.58604622
Np       0.00000000       0.00000000       3.79494949       0.00000000       0.00000000      -1.58604622
2
Properties=species:S:1:pos:R:3:forces:R:3 energy=-15.432043010609865 pbc="F F F"
Np       0.00000000       0.00000000       0.00000000       0.00000000       0.00000000       1.58834612
Np       0.00000000       0.00000000       3.85454545       0.00000000       0.00000000      -1.58834612
2
Properties=species:S:1:pos:R:3:forces:R:3 energy=-15.33967507566933 pbc="F F F"
Np       0.00000000       0.00000000       0.00000000       0.00000000       0.00000000       1.49642849
Np       0.00000000       0.00000000       3.91414141       0.00000000       0.00000000      -1.49642849
2
Properties=species:S:1:pos:R:3:forces:R:3 energy=-15.255204170488993 pbc="F F F"
Np       0.00000000       0.00000000       0.00000000       0.00000000       0.00000000       1.32852292
Np       0.00000000       0.00000000       3.97373737       0.00000000       0.00000000      -1.32852292
2
Properties=species:S:1:pos:R:3:forces:R:3 energy=-15.182066216215842 pbc="F F F"
Np       0.00000000       0.00000000       0.00000000       0.00000000       0.00000000       1.12343693
Np       0.00000000       0.00000000       4.03333333       0.00000000       0.00000000      -1.12343693
2
Properties=species:S:1:pos:R:3:forces:R:3 energy=-15.121197616970008 pbc="F F F"
Np       0.00000000       0.00000000       0.00000000       0.00000000       0.00000000       0.92305797
Np       0.00000000       0.00000000       4.09292929       0.00000000       0.00000000      -0.92305797
2
Properties=species:S:1:pos:R:3:forces:R:3 energy=-15.071338629647688 pbc="F F F"
Np       0.00000000       0.00000000       0.00000000       0.00000000       0.00000000       0.75758773
Np       0.00000000       0.00000000       4.15252525       0.00000000       0.00000000      -0.75758773
2
Properties=species:S:1:pos:R:3:forces:R:3 energy=-15.029945139924076 pbc="F F F"
Np       0.00000000       0.00000000       0.00000000       0.00000000       0.00000000       0.63966656
Np       0.00000000       0.00000000       4.21212121       0.00000000       0.00000000      -0.63966656
2
Properties=species:S:1:pos:R:3:forces:R:3 energy=-14.994193847654138 pbc="F F F"
Np       0.00000000       0.00000000       0.00000000       0.00000000       0.00000000       0.56688344
Np       0.00000000       0.00000000       4.27171717       0.00000000       0.00000000      -0.56688344
2
Properties=species:S:1:pos:R:3:forces:R:3 energy=-14.961700472331898 pbc="F F F"
Np       0.00000000       0.00000000       0.00000000       0.00000000       0.00000000       0.52806556
Np       0.00000000       0.00000000       4.33131313       0.00000000       0.00000000      -0.52806556
2
Properties=species:S:1:pos:R:3:forces:R:3 energy=-14.930860278177823 pbc="F F F"
Np       0.00000000       0.00000000       0.00000000       0.00000000       0.00000000       0.50901520
Np       0.00000000       0.00000000       4.39090909       0.00000000       0.00000000      -0.50901520
2
Properties=species:S:1:pos:R:3:forces:R:3 energy=-14.900910978629852 pbc="F F F"
Np       0.00000000       0.00000000       0.00000000       0.00000000       0.00000000       0.49600840
Np       0.00000000       0.00000000       4.45050505       0.00000000       0.00000000      -0.49600840
2
Properties=species:S:1:pos:R:3:forces:R:3 energy=-14.871849994761057 pbc="F F F"
Np       0.00000000       0.00000000       0.00000000       0.00000000       0.00000000       0.47756296
Np       0.00000000       0.00000000       4.51010101       0.00000000       0.00000000      -0.47756296
2
Properties=species:S:1:pos:R:3:forces:R:3 energy=-14.844260721827304 pbc="F F F"
Np       0.00000000       0.00000000       0.00000000       0.00000000       0.00000000       0.44556338
Np       0.00000000       0.00000000       4.56969697       0.00000000       0.00000000      -0.44556338
2
Properties=species:S:1:pos:R:3:forces:R:3 energy=-14.819087753568226 pbc="F F F"
Np       0.00000000       0.00000000       0.00000000       0.00000000       0.00000000       0.39633781
Np       0.00000000       0.00000000       4.62929293       0.00000000       0.00000000      -0.39633781
2
Properties=species:S:1:pos:R:3:forces:R:3 energy=-14.797337225731251 pbc="F F F"
Np       0.00000000       0.00000000       0.00000000       0.00000000       0.00000000       0.33138657
Np       0.00000000       0.00000000       4.68888889       0.00000000       0.00000000      -0.33138657
2
Properties=species:S:1:pos:R:3:forces:R:3 energy=-14.779775708413382 pbc="F F F"
Np       0.00000000       0.00000000       0.00000000       0.00000000       0.00000000       0.25717562
Np       0.00000000       0.00000000       4.74848485       0.00000000       0.00000000      -0.25717562
2
Properties=species:S:1:pos:R:3:forces:R:3 energy=-14.766669688246076 pbc="F F F"
Np       0.00000000       0.00000000       0.00000000       0.00000000       0.00000000       0.18369316
Np       0.00000000       0.00000000       4.80808081       0.00000000       0.00000000      -0.18369316
2
Properties=species:S:1:pos:R:3:forces:R:3 energy=-14.757650286026486 pbc="F F F"
Np       0.00000000       0.00000000       0.00000000       0.00000000       0.00000000       0.12169766
Np       0.00000000       0.00000000       4.86767677       0.00000000       0.00000000      -0.12169766
2
Properties=species:S:1:pos:R:3:forces:R:3 energy=-14.751769529837771 pbc="F F F"
Np       0.00000000       0.00000000       0.00000000       0.00000000       0.00000000       0.07938045
Np       0.00000000       0.00000000       4.92727273       0.00000000       0.00000000      -0.07938045
2
Properties=species:S:1:pos:R:3:forces:R:3 energy=-14.747737712247934 pbc="F F F"
Np       0.00000000       0.00000000       0.00000000       0.00000000       0.00000000       0.05958034
Np       0.00000000       0.00000000       4.98686869       0.00000000       0.00000000      -0.05958034
2
Properties=species:S:1:pos:R:3:forces:R:3 energy=-14.744283014226115 pbc="F F F"
Np       0.00000000       0.00000000       0.00000000       0.00000000       0.00000000       0.05902028
Np       0.00000000       0.00000000       5.04646465       0.00000000       0.00000000      -0.05902028
2
Properties=species:S:1:pos:R:3:forces:R:3 energy=-14.740467934946324 pbc="F F F"
Np       0.00000000       0.00000000       0.00000000       0.00000000       0.00000000       0.07029495
Np       0.00000000       0.00000000       5.10606061       0.00000000       0.00000000      -0.07029495
2
Properties=species:S:1:pos:R:3:forces:R:3 energy=-14.735821019220335 pbc="F F F"
Np       0.00000000       0.00000000       0.00000000       0.00000000       0.00000000       0.08589247
Np       0.00000000       0.00000000       5.16565657       0.00000000       0.00000000      -0.08589247
2
Properties=species:S:1:pos:R:3:forces:R:3 energy=-14.73022507486206 pbc="F F F"
Np       0.00000000       0.00000000       0.00000000       0.00000000       0.00000000       0.10185912
Np       0.00000000       0.00000000       5.22525253       0.00000000       0.00000000      -0.10185912
2
Properties=species:S:1:pos:R:3:forces:R:3 energy=-14.723680617107558 pbc="F F F"
Np       0.00000000       0.00000000       0.00000000       0.00000000       0.00000000       0.11773214
Np       0.00000000       0.00000000       5.28484848       0.00000000       0.00000000      -0.11773214
2
Properties=species:S:1:pos:R:3:forces:R:3 energy=-14.716254319516802 pbc="F F F"
Np       0.00000000       0.00000000       0.00000000       0.00000000       0.00000000       0.12999861
Np       0.00000000       0.00000000       5.34444444       0.00000000       0.00000000      -0.12999861
2
Properties=species:S:1:pos:R:3:forces:R:3 energy=-14.70856332847095 pbc="F F F"
Np       0.00000000       0.00000000       0.00000000       0.00000000       0.00000000       0.12319177
Np       0.00000000       0.00000000       5.40404040       0.00000000       0.00000000      -0.12319177
2
Properties=species:S:1:pos:R:3:forces:R:3 energy=-14.702164279930061 pbc="F F F"
Np       0.00000000       0.00000000       0.00000000       0.00000000       0.00000000       0.08860821
Np       0.00000000       0.00000000       5.46363636       0.00000000       0.00000000      -0.08860821
2
Properties=species:S:1:pos:R:3:forces:R:3 energy=-14.697858537809468 pbc="F F F"
Np       0.00000000       0.00000000       0.00000000       0.00000000       0.00000000       0.06037031
Np       0.00000000       0.00000000       5.52323232       0.00000000       0.00000000      -0.06037031
2
Properties=species:S:1:pos:R:3:forces:R:3 energy=-14.694456092681534 pbc="F F F"
Np       0.00000000       0.00000000       0.00000000       0.00000000       0.00000000       0.05627661
Np       0.00000000       0.00000000       5.58282828       0.00000000       0.00000000      -0.05627661
2
Properties=species:S:1:pos:R:3:forces:R:3 energy=-14.691109088786312 pbc="F F F"
Np       0.00000000       0.00000000       0.00000000       0.00000000       0.00000000       0.05514925
Np       0.00000000       0.00000000       5.64242424       0.00000000       0.00000000      -0.05514925
2
Properties=species:S:1:pos:R:3:forces:R:3 energy=-14.687904036775091 pbc="F F F"
Np       0.00000000       0.00000000       0.00000000       0.00000000       0.00000000       0.05453717
Np       0.00000000       0.00000000       5.70202020       0.00000000       0.00000000      -0.05453717
2
Properties=species:S:1:pos:R:3:forces:R:3 energy=-14.683898071580032 pbc="F F F"
Np       0.00000000       0.00000000       0.00000000       0.00000000       0.00000000       0.08846460
Np       0.00000000       0.00000000       5.76161616       0.00000000       0.00000000      -0.08846460
2
Properties=species:S:1:pos:R:3:forces:R:3 energy=-14.676812708917007 pbc="F F F"
Np       0.00000000       0.00000000       0.00000000       0.00000000       0.00000000       0.14522058
Np       0.00000000       0.00000000       5.82121212       0.00000000       0.00000000      -0.14522058
2
Properties=species:S:1:pos:R:3:forces:R:3 energy=-14.66805878693696 pbc="F F F"
Np       0.00000000       0.00000000       0.00000000       0.00000000       0.00000000       0.13449463
Np       0.00000000       0.00000000       5.88080808       0.00000000       0.00000000      -0.13449463
2
Properties=species:S:1:pos:R:3:forces:R:3 energy=-14.661867535875139 pbc="F F F"
Np       0.00000000       0.00000000       0.00000000       0.00000000       0.00000000       0.07042000
Np       0.00000000       0.00000000       5.94040404       0.00000000       0.00000000      -0.07042000
2
Properties=species:S:1:pos:R:3:forces:R:3 energy=-14.658961085962607 pbc="F F F"
Np       0.00000000       0.00000000       0.00000000       0.00000000       0.00000000       0.03771560
Np       0.00000000       0.00000000       6.00000000       0.00000000       0.00000000      -0.03771560
