2
Properties=species:S:1:pos:R:3:forces:R:3 energy=820.7206862288095 pbc="F F F"
O        0.00000000       0.00000000       0.00000000       0.00000000       0.00000000   -7713.06982422
O        0.00000000       0.00000000       0.18000000       0.00000000       0.00000000    7713.06982422
2
Properties=species:S:1:pos:R:3:forces:R:3 energy=527.9128859374248 pbc="F F F"
O        0.00000000       0.00000000       0.00000000       0.00000000       0.00000000   -3101.87890625
O        0.00000000       0.00000000       0.23878788       0.00000000       0.00000000    3101.87890625
2
Properties=species:S:1:pos:R:3:forces:R:3 energy=400.2469313491649 pbc="F F F"
O        0.00000000       0.00000000       0.00000000       0.00000000       0.00000000   -1484.03979492
O        0.00000000       0.00000000       0.29757576       0.00000000       0.00000000    1484.03979492
2
Properties=species:S:1:pos:R:3:forces:R:3 energy=332.9468214906354 pbc="F F F"
O        0.00000000       0.00000000       0.00000000       0.00000000       0.00000000    -906.37878418
O        0.00000000       0.00000000       0.35636364       0.00000000       0.00000000     906.37878418
2
Properties=species:S:1:pos:R:3:forces:R:3 energy=281.23979025172275 pbc="F F F"
O        0.00000000       0.00000000       0.00000000       0.00000000       0.00000000   -1019.27502441
O        0.00000000       0.00000000       0.41515152       0.00000000       0.00000000    1019.27502441
2
Properties=species:S:1:pos:R:3:forces:R:3 energy=214.18540794967876 pbc="F F F"
O        0.00000000       0.00000000       0.00000000       0.00000000       0.00000000   -1120.71215820
O        0.00000000       0.00000000       0.47393939       0.00000000       0.00000000    1120.71215820
2
Properties=species:S:1:pos:R:3:forces:R:3 energy=151.60182034437608 pbc="F F F"
O        0.00000000       0.00000000       0.00000000       0.00000000       0.00000000   -1003.05664062
O        0.00000000       0.00000000       0.53272727       0.00000000       0.00000000    1003.05664062
2
Properties=species:S:1:pos:R:3:forces:R:3 energy=99.55946201959046 pbc="F F F"
O        0.00000000       0.00000000       0.00000000       0.00000000       0.00000000    -763.42065430
O        0.00000000       0.00000000       0.59151515       0.00000000       0.00000000     763.42065430
2
Properties=species:S:1:pos:R:3:forces:R:3 energy=60.612894602983395 pbc="F F F"
O        0.00000000       0.00000000       0.00000000       0.00000000       0.00000000    -558.28961182
O        0.00000000       0.00000000       0.65030303       0.00000000       0.00000000     558.28961182
2
Properties=species:S:1:pos:R:3:forces:R:3 energy=34.158957260159276 pbc="F F F"
O        0.00000000       0.00000000       0.00000000       0.00000000       0.00000000    -348.43103027
O        0.00000000       0.00000000       0.70909091       0.00000000       0.00000000     348.43103027
2
Properties=species:S:1:pos:R:3:forces:R:3 energy=17.345505778295497 pbc="F F F"
O        0.00000000       0.00000000       0.00000000       0.00000000       0.00000000    -231.62834167
O        0.00000000       0.00000000       0.76787879       0.00000000       0.00000000     231.62834167
2
Properties=species:S:1:pos:R:3:forces:R:3 energy=6.83826733313325 pbc="F F F"
O        0.00000000       0.00000000       0.00000000       0.00000000       0.00000000    -132.97265625
O        0.00000000       0.00000000       0.82666667       0.00000000       0.00000000     132.97265625
2
Properties=species:S:1:pos:R:3:forces:R:3 energy=0.5833944208440434 pbc="F F F"
O        0.00000000       0.00000000       0.00000000       0.00000000       0.00000000     -86.37398529
O        0.00000000       0.00000000       0.88545455       0.00000000       0.00000000      86.37398529
2
Properties=species:S:1:pos:R:3:forces:R:3 energy=-3.678548557613715 pbc="F F F"
O        0.00000000       0.00000000       0.00000000       0.00000000       0.00000000     -59.66999435
O        0.00000000       0.00000000       0.94424242       0.00000000       0.00000000      59.66999435
2
Properties=species:S:1:pos:R:3:forces:R:3 energy=-6.526620655748902 pbc="F F F"
O        0.00000000       0.00000000       0.00000000       0.00000000       0.00000000     -38.23431778
O        0.00000000       0.00000000       1.00303030       0.00000000       0.00000000      38.23431778
2
Properties=species:S:1:pos:R:3:forces:R:3 energy=-8.297640975774947 pbc="F F F"
O        0.00000000       0.00000000       0.00000000       0.00000000       0.00000000     -22.92066956
O        0.00000000       0.00000000       1.06181818       0.00000000       0.00000000      22.92066956
2
Properties=species:S:1:pos:R:3:forces:R:3 energy=-9.30740655595318 pbc="F F F"
O        0.00000000       0.00000000       0.00000000       0.00000000       0.00000000     -12.05101299
O        0.00000000       0.00000000       1.12060606       0.00000000       0.00000000      12.05101299
2
Properties=species:S:1:pos:R:3:forces:R:3 energy=-9.780337973863265 pbc="F F F"
O        0.00000000       0.00000000       0.00000000       0.00000000       0.00000000      -4.53924179
O        0.00000000       0.00000000       1.17939394       0.00000000       0.00000000       4.53924179
2
Properties=species:S:1:pos:R:3:forces:R:3 energy=-9.891561526205425 pbc="F F F"
O        0.00000000       0.00000000       0.00000000       0.00000000       0.00000000       0.40110147
O        0.00000000       0.00000000       1.23818182       0.00000000       0.00000000      -0.40110147
2
Properties=species:S:1:pos:R:3:forces:R:3 energy=-9.767018180507442 pbc="F F F"
O        0.00000000       0.00000000       0.00000000       0.00000000       0.00000000       3.60371161
O        0.00000000       0.00000000       1.29696970       0.00000000       0.00000000      -3.60371161
2
Properties=species:S:1:pos:R:3:forces:R:3 energy=-9.490393307704862 pbc="F F F"
O        0.00000000       0.00000000       0.00000000       0.00000000       0.00000000       5.65259790
O        0.00000000       0.00000000       1.35575758       0.00000000       0.00000000      -5.65259790
2
Properties=species:S:1:pos:R:3:forces:R:3 energy=-9.118020307428209 pbc="F F F"
O        0.00000000       0.00000000       0.00000000       0.00000000       0.00000000       6.89757538
O        0.00000000       0.00000000       1.41454545       0.00000000       0.00000000      -6.89757538
2
Properties=species:S:1:pos:R:3:forces:R:3 energy=-8.691364845336931 pbc="F F F"
O        0.00000000       0.00000000       0.00000000       0.00000000       0.00000000       7.53857040
O        0.00000000       0.00000000       1.47333333       0.00000000       0.00000000      -7.53857040
2
Properties=species:S:1:pos:R:3:forces:R:3 energy=-8.236668732966942 pbc="F F F"
O        0.00000000       0.00000000       0.00000000       0.00000000       0.00000000       7.93107748
O        0.00000000       0.00000000       1.53212121       0.00000000       0.00000000      -7.93107748
2
Properties=species:S:1:pos:R:3:forces:R:3 energy=-7.755030415996446 pbc="F F F"
O        0.00000000       0.00000000       0.00000000       0.00000000       0.00000000       8.49046803
O        0.00000000       0.00000000       1.59090909       0.00000000       0.00000000      -8.49046803
2
Properties=species:S:1:pos:R:3:forces:R:3 energy=-7.240858836774257 pbc="F F F"
O        0.00000000       0.00000000       0.00000000       0.00000000       0.00000000       8.89726353
O        0.00000000       0.00000000       1.64969697       0.00000000       0.00000000      -8.89726353
2
Properties=species:S:1:pos:R:3:forces:R:3 energy=-6.727685070616259 pbc="F F F"
O        0.00000000       0.00000000       0.00000000       0.00000000       0.00000000       8.40710735
O        0.00000000       0.00000000       1.70848485       0.00000000       0.00000000      -8.40710735
2
Properties=species:S:1:pos:R:3:forces:R:3 energy=-6.26057551800912 pbc="F F F"
O        0.00000000       0.00000000       0.00000000       0.00000000       0.00000000       7.51086473
O        0.00000000       0.00000000       1.76727273       0.00000000       0.00000000      -7.51086473
2
Properties=species:S:1:pos:R:3:forces:R:3 energy=-5.8353589911323605 pbc="F F F"
O        0.00000000       0.00000000       0.00000000       0.00000000       0.00000000       7.04035378
O        0.00000000       0.00000000       1.82606061       0.00000000       0.00000000      -7.04035378
2
Properties=species:S:1:pos:R:3:forces:R:3 energy=-5.427274797249199 pbc="F F F"
O        0.00000000       0.00000000       0.00000000       0.00000000       0.00000000       6.84413958
O        0.00000000       0.00000000       1.88484848       0.00000000       0.00000000      -6.84413958
2
Properties=species:S:1:pos:R:3:forces:R:3 energy=-5.034461660532142 pbc="F F F"
O        0.00000000       0.00000000       0.00000000       0.00000000       0.00000000       6.46833563
O        0.00000000       0.00000000       1.94363636       0.00000000       0.00000000      -6.46833563
2
Properties=species:S:1:pos:R:3:forces:R:3 energy=-4.6728099203596 pbc="F F F"
O        0.00000000       0.00000000       0.00000000       0.00000000       0.00000000       5.79180336
O        0.00000000       0.00000000       2.00242424       0.00000000       0.00000000      -5.79180336
2
Properties=species:S:1:pos:R:3:forces:R:3 energy=-4.35705585806373 pbc="F F F"
O        0.00000000       0.00000000       0.00000000       0.00000000       0.00000000       4.93392086
O        0.00000000       0.00000000       2.06121212       0.00000000       0.00000000      -4.93392086
2
Properties=species:S:1:pos:R:3:forces:R:3 energy=-4.0931094207021195 pbc="F F F"
O        0.00000000       0.00000000       0.00000000       0.00000000       0.00000000       4.05291462
O        0.00000000       0.00000000       2.12000000       0.00000000       0.00000000      -4.05291462
2
Properties=species:S:1:pos:R:3:forces:R:3 energy=-3.8789111294616703 pbc="F F F"
O        0.00000000       0.00000000       0.00000000       0.00000000       0.00000000       3.25226545
O        0.00000000       0.00000000       2.17878788       0.00000000       0.00000000      -3.25226545
2
Properties=species:S:1:pos:R:3:forces:R:3 energy=-3.7084153648343263 pbc="F F F"
O        0.00000000       0.00000000       0.00000000       0.00000000       0.00000000       2.56790304
O        0.00000000       0.00000000       2.23757576       0.00000000       0.00000000      -2.56790304
2
Properties=species:S:1:pos:R:3:forces:R:3 energy=-3.5747534111811605 pbc="F F F"
O        0.00000000       0.00000000       0.00000000       0.00000000       0.00000000       1.99736154
O        0.00000000       0.00000000       2.29636364       0.00000000       0.00000000      -1.99736154
2
Properties=species:S:1:pos:R:3:forces:R:3 energy=-3.4715723663314018 pbc="F F F"
O        0.00000000       0.00000000       0.00000000       0.00000000       0.00000000       1.52913296
O        0.00000000       0.00000000       2.35515152       0.00000000       0.00000000      -1.52913296
2
Properties=species:S:1:pos:R:3:forces:R:3 energy=-3.393158986155077 pbc="F F F"
O        0.00000000       0.00000000       0.00000000       0.00000000       0.00000000       1.15307939
O        0.00000000       0.00000000       2.41393939       0.00000000       0.00000000      -1.15307939
2
Properties=species:S:1:pos:R:3:forces:R:3 energy=-3.3343815832896153 pbc="F F F"
O        0.00000000       0.00000000       0.00000000       0.00000000       0.00000000       0.85940403
O        0.00000000       0.00000000       2.47272727       0.00000000       0.00000000      -0.85940403
2
Properties=species:S:1:pos:R:3:forces:R:3 energy=-3.2907284560886447 pbc="F F F"
O        0.00000000       0.00000000       0.00000000       0.00000000       0.00000000       0.63637388
O        0.00000000       0.00000000       2.53151515       0.00000000       0.00000000      -0.63637388
2
Properties=species:S:1:pos:R:3:forces:R:3 energy=-3.2584357300816267 pbc="F F F"
O        0.00000000       0.00000000       0.00000000       0.00000000       0.00000000       0.47069341
O        0.00000000       0.00000000       2.59030303       0.00000000       0.00000000      -0.47069341
2
Properties=species:S:1:pos:R:3:forces:R:3 energy=-3.234521237962716 pbc="F F F"
O        0.00000000       0.00000000       0.00000000       0.00000000       0.00000000       0.34923279
O        0.00000000       0.00000000       2.64909091       0.00000000       0.00000000      -0.34923279
2
Properties=species:S:1:pos:R:3:forces:R:3 energy=-3.216730683717257 pbc="F F F"
O        0.00000000       0.00000000       0.00000000       0.00000000       0.00000000       0.26069042
O        0.00000000       0.00000000       2.70787879       0.00000000       0.00000000      -0.26069042
2
Properties=species:S:1:pos:R:3:forces:R:3 energy=-3.203397466752473 pbc="F F F"
O        0.00000000       0.00000000       0.00000000       0.00000000       0.00000000       0.19635889
O        0.00000000       0.00000000       2.76666667       0.00000000       0.00000000      -0.19635889
2
Properties=species:S:1:pos:R:3:forces:R:3 energy=-3.193292490071964 pbc="F F F"
O        0.00000000       0.00000000       0.00000000       0.00000000       0.00000000       0.15000623
O        0.00000000       0.00000000       2.82545455       0.00000000       0.00000000      -0.15000623
2
Properties=species:S:1:pos:R:3:forces:R:3 energy=-3.1854937591721617 pbc="F F F"
O        0.00000000       0.00000000       0.00000000       0.00000000       0.00000000       0.11728280
O        0.00000000       0.00000000       2.88424242       0.00000000       0.00000000      -0.11728280
2
Properties=species:S:1:pos:R:3:forces:R:3 energy=-3.1792988701484886 pbc="F F F"
O        0.00000000       0.00000000       0.00000000       0.00000000       0.00000000       0.09497816
O        0.00000000       0.00000000       2.94303030       0.00000000       0.00000000      -0.09497816
2
Properties=species:S:1:pos:R:3:forces:R:3 energy=-3.1741749314983227 pbc="F F F"
O        0.00000000       0.00000000       0.00000000       0.00000000       0.00000000       0.08043291
O        0.00000000       0.00000000       3.00181818       0.00000000       0.00000000      -0.08043291
2
Properties=species:S:1:pos:R:3:forces:R:3 energy=-3.1697375428963053 pbc="F F F"
O        0.00000000       0.00000000       0.00000000       0.00000000       0.00000000       0.07123048
O        0.00000000       0.00000000       3.06060606       0.00000000       0.00000000      -0.07123048
2
Properties=species:S:1:pos:R:3:forces:R:3 energy=-3.1657388390233647 pbc="F F F"
O        0.00000000       0.00000000       0.00000000       0.00000000       0.00000000       0.06516369
O        0.00000000       0.00000000       3.11939394       0.00000000       0.00000000      -0.06516369
2
Properties=species:S:1:pos:R:3:forces:R:3 energy=-3.1620502652202886 pbc="F F F"
O        0.00000000       0.00000000       0.00000000       0.00000000       0.00000000       0.06040047
O        0.00000000       0.00000000       3.17818182       0.00000000       0.00000000      -0.06040047
2
Properties=species:S:1:pos:R:3:forces:R:3 energy=-3.158636306302558 pbc="F F F"
O        0.00000000       0.00000000       0.00000000       0.00000000       0.00000000       0.05570418
O        0.00000000       0.00000000       3.23696970       0.00000000       0.00000000      -0.05570418
2
Properties=species:S:1:pos:R:3:forces:R:3 energy=-3.155509824278434 pbc="F F F"
O        0.00000000       0.00000000       0.00000000       0.00000000       0.00000000       0.05057482
O        0.00000000       0.00000000       3.29575758       0.00000000       0.00000000      -0.05057482
2
Properties=species:S:1:pos:R:3:forces:R:3 energy=-3.1526945838664386 pbc="F F F"
O        0.00000000       0.00000000       0.00000000       0.00000000       0.00000000       0.04522488
O        0.00000000       0.00000000       3.35454545       0.00000000       0.00000000      -0.04522488
2
Properties=species:S:1:pos:R:3:forces:R:3 energy=-3.150183233408661 pbc="F F F"
O        0.00000000       0.00000000       0.00000000       0.00000000       0.00000000       0.04037381
O        0.00000000       0.00000000       3.41333333       0.00000000       0.00000000      -0.04037381
2
Properties=species:S:1:pos:R:3:forces:R:3 energy=-3.1479198607167 pbc="F F F"
O        0.00000000       0.00000000       0.00000000       0.00000000       0.00000000       0.03693014
O        0.00000000       0.00000000       3.47212121       0.00000000       0.00000000      -0.03693014
2
Properties=species:S:1:pos:R:3:forces:R:3 energy=-3.1457985241503517 pbc="F F F"
O        0.00000000       0.00000000       0.00000000       0.00000000       0.00000000       0.03564520
O        0.00000000       0.00000000       3.53090909       0.00000000       0.00000000      -0.03564520
2
Properties=species:S:1:pos:R:3:forces:R:3 energy=-3.1436792159710047 pbc="F F F"
O        0.00000000       0.00000000       0.00000000       0.00000000       0.00000000       0.03686419
O        0.00000000       0.00000000       3.58969697       0.00000000       0.00000000      -0.03686419
2
Properties=species:S:1:pos:R:3:forces:R:3 energy=-3.1414183640806583 pbc="F F F"
O        0.00000000       0.00000000       0.00000000       0.00000000       0.00000000       0.04041761
O        0.00000000       0.00000000       3.64848485       0.00000000       0.00000000      -0.04041761
2
Properties=species:S:1:pos:R:3:forces:R:3 energy=-3.138893879237981 pbc="F F F"
O        0.00000000       0.00000000       0.00000000       0.00000000       0.00000000       0.04567411
O        0.00000000       0.00000000       3.70727273       0.00000000       0.00000000      -0.04567411
2
Properties=species:S:1:pos:R:3:forces:R:3 energy=-3.136032329430629 pbc="F F F"
O        0.00000000       0.00000000       0.00000000       0.00000000       0.00000000       0.05171438
O        0.00000000       0.00000000       3.76606061       0.00000000       0.00000000      -0.05171438
2
Properties=species:S:1:pos:R:3:forces:R:3 energy=-3.132817555810249 pbc="F F F"
O        0.00000000       0.00000000       0.00000000       0.00000000       0.00000000       0.05755657
O        0.00000000       0.00000000       3.82484848       0.00000000       0.00000000      -0.05755657
2
Properties=species:S:1:pos:R:3:forces:R:3 energy=-3.1292859162002276 pbc="F F F"
O        0.00000000       0.00000000       0.00000000       0.00000000       0.00000000       0.06234436
O        0.00000000       0.00000000       3.88363636       0.00000000       0.00000000      -0.06234436
2
Properties=species:S:1:pos:R:3:forces:R:3 energy=-3.1255193988733323 pbc="F F F"
O        0.00000000       0.00000000       0.00000000       0.00000000       0.00000000       0.06546821
O        0.00000000       0.00000000       3.94242424       0.00000000       0.00000000      -0.06546821
2
Properties=species:S:1:pos:R:3:forces:R:3 energy=-3.1216284772028473 pbc="F F F"
O        0.00000000       0.00000000       0.00000000       0.00000000       0.00000000       0.06656777
O        0.00000000       0.00000000       4.00121212       0.00000000       0.00000000      -0.06656777
2
Properties=species:S:1:pos:R:3:forces:R:3 energy=-3.1177359261055733 pbc="F F F"
O        0.00000000       0.00000000       0.00000000       0.00000000       0.00000000       0.06547647
O        0.00000000       0.00000000       4.06000000       0.00000000       0.00000000      -0.06547647
2
Properties=species:S:1:pos:R:3:forces:R:3 energy=-3.113973498634906 pbc="F F F"
O        0.00000000       0.00000000       0.00000000       0.00000000       0.00000000       0.06216393
O        0.00000000       0.00000000       4.11878788       0.00000000       0.00000000      -0.06216393
2
Properties=species:S:1:pos:R:3:forces:R:3 energy=-3.1104690783040563 pbc="F F F"
O        0.00000000       0.00000000       0.00000000       0.00000000       0.00000000       0.05671812
O        0.00000000       0.00000000       4.17757576       0.00000000       0.00000000      -0.05671812
2
Properties=species:S:1:pos:R:3:forces:R:3 energy=-3.107341683878236 pbc="F F F"
O        0.00000000       0.00000000       0.00000000       0.00000000       0.00000000       0.04939032
O        0.00000000       0.00000000       4.23636364       0.00000000       0.00000000      -0.04939032
2
Properties=species:S:1:pos:R:3:forces:R:3 energy=-3.104689089724529 pbc="F F F"
O        0.00000000       0.00000000       0.00000000       0.00000000       0.00000000       0.04065773
O        0.00000000       0.00000000       4.29515152       0.00000000       0.00000000      -0.04065773
2
Properties=species:S:1:pos:R:3:forces:R:3 energy=-3.102574964671864 pbc="F F F"
O        0.00000000       0.00000000       0.00000000       0.00000000       0.00000000       0.03125006
O        0.00000000       0.00000000       4.35393939       0.00000000       0.00000000      -0.03125006
2
Properties=species:S:1:pos:R:3:forces:R:3 energy=-3.1010105168492497 pbc="F F F"
O        0.00000000       0.00000000       0.00000000       0.00000000       0.00000000       0.02208762
O        0.00000000       0.00000000       4.41272727       0.00000000       0.00000000      -0.02208762
2
Properties=species:S:1:pos:R:3:forces:R:3 energy=-3.0999533176299803 pbc="F F F"
O        0.00000000       0.00000000       0.00000000       0.00000000       0.00000000       0.01416154
O        0.00000000       0.00000000       4.47151515       0.00000000       0.00000000      -0.01416154
2
Properties=species:S:1:pos:R:3:forces:R:3 energy=-3.0993037269368613 pbc="F F F"
O        0.00000000       0.00000000       0.00000000       0.00000000       0.00000000       0.00834318
O        0.00000000       0.00000000       4.53030303       0.00000000       0.00000000      -0.00834318
2
Properties=species:S:1:pos:R:3:forces:R:3 energy=-3.098919680044838 pbc="F F F"
O        0.00000000       0.00000000       0.00000000       0.00000000       0.00000000       0.00519501
O        0.00000000       0.00000000       4.58909091       0.00000000       0.00000000      -0.00519501
2
Properties=species:S:1:pos:R:3:forces:R:3 energy=-3.098638389314381 pbc="F F F"
O        0.00000000       0.00000000       0.00000000       0.00000000       0.00000000       0.00481565
O        0.00000000       0.00000000       4.64787879       0.00000000       0.00000000      -0.00481565
2
Properties=species:S:1:pos:R:3:forces:R:3 energy=-3.0983075760354004 pbc="F F F"
O        0.00000000       0.00000000       0.00000000       0.00000000       0.00000000       0.00678083
O        0.00000000       0.00000000       4.70666667       0.00000000       0.00000000      -0.00678083
2
Properties=species:S:1:pos:R:3:forces:R:3 energy=-3.0978131302492407 pbc="F F F"
O        0.00000000       0.00000000       0.00000000       0.00000000       0.00000000       0.01017527
O        0.00000000       0.00000000       4.76545455       0.00000000       0.00000000      -0.01017527
2
Properties=species:S:1:pos:R:3:forces:R:3 energy=-3.097106767996816 pbc="F F F"
O        0.00000000       0.00000000       0.00000000       0.00000000       0.00000000       0.01377112
O        0.00000000       0.00000000       4.82424242       0.00000000       0.00000000      -0.01377112
2
Properties=species:S:1:pos:R:3:forces:R:3 energy=-3.096215092016573 pbc="F F F"
O        0.00000000       0.00000000       0.00000000       0.00000000       0.00000000       0.01629802
O        0.00000000       0.00000000       4.88303030       0.00000000       0.00000000      -0.01629802
2
Properties=species:S:1:pos:R:3:forces:R:3 energy=-3.0952314823449787 pbc="F F F"
O        0.00000000       0.00000000       0.00000000       0.00000000       0.00000000       0.01676035
O        0.00000000       0.00000000       4.94181818       0.00000000       0.00000000      -0.01676035
2
Properties=species:S:1:pos:R:3:forces:R:3 energy=-3.0942941639356225 pbc="F F F"
O        0.00000000       0.00000000       0.00000000       0.00000000       0.00000000       0.01471211
O        0.00000000       0.00000000       5.00060606       0.00000000       0.00000000      -0.01471211
2
Properties=species:S:1:pos:R:3:forces:R:3 energy=-3.0935463903605305 pbc="F F F"
O        0.00000000       0.00000000       0.00000000       0.00000000       0.00000000       0.01038814
O        0.00000000       0.00000000       5.05939394       0.00000000       0.00000000      -0.01038814
2
Properties=species:S:1:pos:R:3:forces:R:3 energy=-3.0931009160760663 pbc="F F F"
O        0.00000000       0.00000000       0.00000000       0.00000000       0.00000000       0.00463207
O        0.00000000       0.00000000       5.11818182       0.00000000       0.00000000      -0.00463207
2
Properties=species:S:1:pos:R:3:forces:R:3 energy=-3.0930070952034856 pbc="F F F"
O        0.00000000       0.00000000       0.00000000       0.00000000       0.00000000      -0.00139399
O        0.00000000       0.00000000       5.17696970       0.00000000       0.00000000       0.00139399
2
Properties=species:S:1:pos:R:3:forces:R:3 energy=-3.093248020357496 pbc="F F F"
O        0.00000000       0.00000000       0.00000000       0.00000000       0.00000000      -0.00658121
O        0.00000000       0.00000000       5.23575758       0.00000000       0.00000000       0.00658121
2
Properties=species:S:1:pos:R:3:forces:R:3 energy=-3.0937479099099154 pbc="F F F"
O        0.00000000       0.00000000       0.00000000       0.00000000       0.00000000      -0.01008422
O        0.00000000       0.00000000       5.29454545       0.00000000       0.00000000       0.01008422
2
Properties=species:S:1:pos:R:3:forces:R:3 energy=-3.0943847457087803 pbc="F F F"
O        0.00000000       0.00000000       0.00000000       0.00000000       0.00000000      -0.01106389
O        0.00000000       0.00000000       5.35333333       0.00000000       0.00000000       0.01106389
2
Properties=species:S:1:pos:R:3:forces:R:3 energy=-3.0949754888990655 pbc="F F F"
O        0.00000000       0.00000000       0.00000000       0.00000000       0.00000000      -0.00832560
O        0.00000000       0.00000000       5.41212121       0.00000000       0.00000000       0.00832560
2
Properties=species:S:1:pos:R:3:forces:R:3 energy=-3.0952899064678694 pbc="F F F"
O        0.00000000       0.00000000       0.00000000       0.00000000       0.00000000      -0.00202256
O        0.00000000       0.00000000       5.47090909       0.00000000       0.00000000       0.00202256
2
Properties=species:S:1:pos:R:3:forces:R:3 energy=-3.0952308161604387 pbc="F F F"
O        0.00000000       0.00000000       0.00000000       0.00000000       0.00000000       0.00340946
O        0.00000000       0.00000000       5.52969697       0.00000000       0.00000000      -0.00340946
2
Properties=species:S:1:pos:R:3:forces:R:3 energy=-3.094983334877277 pbc="F F F"
O        0.00000000       0.00000000       0.00000000       0.00000000       0.00000000       0.00425263
O        0.00000000       0.00000000       5.58848485       0.00000000       0.00000000      -0.00425263
2
Properties=species:S:1:pos:R:3:forces:R:3 energy=-3.094791002588928 pbc="F F F"
O        0.00000000       0.00000000       0.00000000       0.00000000       0.00000000       0.00208924
O        0.00000000       0.00000000       5.64727273       0.00000000       0.00000000      -0.00208924
2
Properties=species:S:1:pos:R:3:forces:R:3 energy=-3.094719985396047 pbc="F F F"
O        0.00000000       0.00000000       0.00000000       0.00000000       0.00000000       0.00081111
O        0.00000000       0.00000000       5.70606061       0.00000000       0.00000000      -0.00081111
2
Properties=species:S:1:pos:R:3:forces:R:3 energy=-3.094628796543096 pbc="F F F"
O        0.00000000       0.00000000       0.00000000       0.00000000       0.00000000       0.00265899
O        0.00000000       0.00000000       5.76484848       0.00000000       0.00000000      -0.00265899
2
Properties=species:S:1:pos:R:3:forces:R:3 energy=-3.094413865946158 pbc="F F F"
O        0.00000000       0.00000000       0.00000000       0.00000000       0.00000000       0.00424706
O        0.00000000       0.00000000       5.82363636       0.00000000       0.00000000      -0.00424706
2
Properties=species:S:1:pos:R:3:forces:R:3 energy=-3.0941866843557575 pbc="F F F"
O        0.00000000       0.00000000       0.00000000       0.00000000       0.00000000       0.00314073
O        0.00000000       0.00000000       5.88242424       0.00000000       0.00000000      -0.00314073
2
Properties=species:S:1:pos:R:3:forces:R:3 energy=-3.094062326522672 pbc="F F F"
O        0.00000000       0.00000000       0.00000000       0.00000000       0.00000000       0.00112423
O        0.00000000       0.00000000       5.94121212       0.00000000       0.00000000      -0.00112423
2
Properties=species:S:1:pos:R:3:forces:R:3 energy=-3.0940314187133007 pbc="F F F"
O        0.00000000       0.00000000       0.00000000       0.00000000       0.00000000       0.00021801
O        0.00000000       0.00000000       6.00000000       0.00000000       0.00000000      -0.00021801
