2
Properties=species:S:1:pos:R:3:forces:R:3 energy=15781.906822867526 pbc="F F F"
Os       0.00000000       0.00000000       0.00000000       0.00000000       0.00000000 -269948.59375000
Os       0.00000000       0.00000000       0.18000000       0.00000000       0.00000000  269948.59375000
2
Properties=species:S:1:pos:R:3:forces:R:3 energy=6363.806236930025 pbc="F F F"
Os       0.00000000       0.00000000       0.00000000       0.00000000       0.00000000  -88901.47656250
Os       0.00000000       0.00000000       0.23878788       0.00000000       0.00000000   88901.47656250
2
Properties=species:S:1:pos:R:3:forces:R:3 energy=3021.904137326986 pbc="F F F"
Os       0.00000000       0.00000000       0.00000000       0.00000000       0.00000000  -34437.62890625
Os       0.00000000       0.00000000       0.29757576       0.00000000       0.00000000   34437.62890625
2
Properties=species:S:1:pos:R:3:forces:R:3 energy=1665.949059201986 pbc="F F F"
Os       0.00000000       0.00000000       0.00000000       0.00000000       0.00000000  -14756.76660156
Os       0.00000000       0.00000000       0.35636364       0.00000000       0.00000000   14756.76660156
2
Properties=species:S:1:pos:R:3:forces:R:3 energy=1065.391442014486 pbc="F F F"
Os       0.00000000       0.00000000       0.00000000       0.00000000       0.00000000   -6801.90185547
Os       0.00000000       0.00000000       0.41515152       0.00000000       0.00000000    6801.90185547
2
Properties=species:S:1:pos:R:3:forces:R:3 energy=780.7524039348843 pbc="F F F"
Os       0.00000000       0.00000000       0.00000000       0.00000000       0.00000000   -3338.55224609
Os       0.00000000       0.00000000       0.47393939       0.00000000       0.00000000    3338.55224609
2
Properties=species:S:1:pos:R:3:forces:R:3 energy=637.07534096561 pbc="F F F"
Os       0.00000000       0.00000000       0.00000000       0.00000000       0.00000000   -1747.91650391
Os       0.00000000       0.00000000       0.53272727       0.00000000       0.00000000    1747.91650391
2
Properties=species:S:1:pos:R:3:forces:R:3 energy=559.1396110104838 pbc="F F F"
Os       0.00000000       0.00000000       0.00000000       0.00000000       0.00000000    -997.17114258
Os       0.00000000       0.00000000       0.59151515       0.00000000       0.00000000     997.17114258
2
Properties=species:S:1:pos:R:3:forces:R:3 energy=511.85335616568517 pbc="F F F"
Os       0.00000000       0.00000000       0.00000000       0.00000000       0.00000000    -658.10211182
Os       0.00000000       0.00000000       0.65030303       0.00000000       0.00000000     658.10211182
2
Properties=species:S:1:pos:R:3:forces:R:3 energy=474.6003960366348 pbc="F F F"
Os       0.00000000       0.00000000       0.00000000       0.00000000       0.00000000    -604.61035156
Os       0.00000000       0.00000000       0.70909091       0.00000000       0.00000000     604.61035156
2
Properties=species:S:1:pos:R:3:forces:R:3 energy=438.12136170784134 pbc="F F F"
Os       0.00000000       0.00000000       0.00000000       0.00000000       0.00000000    -663.22619629
Os       0.00000000       0.00000000       0.76787879       0.00000000       0.00000000     663.22619629
2
Properties=species:S:1:pos:R:3:forces:R:3 energy=396.4783870063812 pbc="F F F"
Os       0.00000000       0.00000000       0.00000000       0.00000000       0.00000000    -762.04217529
Os       0.00000000       0.00000000       0.82666667       0.00000000       0.00000000     762.04217529
2
Properties=species:S:1:pos:R:3:forces:R:3 energy=347.28185401866807 pbc="F F F"
Os       0.00000000       0.00000000       0.00000000       0.00000000       0.00000000    -904.44049072
Os       0.00000000       0.00000000       0.88545455       0.00000000       0.00000000     904.44049072
2
Properties=species:S:1:pos:R:3:forces:R:3 energy=293.37090461574775 pbc="F F F"
Os       0.00000000       0.00000000       0.00000000       0.00000000       0.00000000    -917.29669189
Os       0.00000000       0.00000000       0.94424242       0.00000000       0.00000000     917.29669189
2
Properties=species:S:1:pos:R:3:forces:R:3 energy=239.62560474093152 pbc="F F F"
Os       0.00000000       0.00000000       0.00000000       0.00000000       0.00000000    -923.04296875
Os       0.00000000       0.00000000       1.00303030       0.00000000       0.00000000     923.04296875
2
Properties=species:S:1:pos:R:3:forces:R:3 energy=187.91579694885885 pbc="F F F"
Os       0.00000000       0.00000000       0.00000000       0.00000000       0.00000000    -822.25311279
Os       0.00000000       0.00000000       1.06181818       0.00000000       0.00000000     822.25311279
2
Properties=species:S:1:pos:R:3:forces:R:3 energy=143.3775896886524 pbc="F F F"
Os       0.00000000       0.00000000       0.00000000       0.00000000       0.00000000    -692.53302002
Os       0.00000000       0.00000000       1.12060606       0.00000000       0.00000000     692.53302002
2
Properties=species:S:1:pos:R:3:forces:R:3 energy=106.54920626492755 pbc="F F F"
Os       0.00000000       0.00000000       0.00000000       0.00000000       0.00000000    -556.64178467
Os       0.00000000       0.00000000       1.17939394       0.00000000       0.00000000     556.64178467
2
Properties=species:S:1:pos:R:3:forces:R:3 energy=78.26714119000938 pbc="F F F"
Os       0.00000000       0.00000000       0.00000000       0.00000000       0.00000000    -408.22216797
Os       0.00000000       0.00000000       1.23818182       0.00000000       0.00000000     408.22216797
2
Properties=species:S:1:pos:R:3:forces:R:3 energy=57.468295603944526 pbc="F F F"
Os       0.00000000       0.00000000       0.00000000       0.00000000       0.00000000    -310.61151123
Os       0.00000000       0.00000000       1.29696970       0.00000000       0.00000000     310.61151123
2
Properties=species:S:1:pos:R:3:forces:R:3 energy=40.92284171774045 pbc="F F F"
Os       0.00000000       0.00000000       0.00000000       0.00000000       0.00000000    -254.66213989
Os       0.00000000       0.00000000       1.35575758       0.00000000       0.00000000     254.66213989
2
Properties=species:S:1:pos:R:3:forces:R:3 energy=27.464878426510666 pbc="F F F"
Os       0.00000000       0.00000000       0.00000000       0.00000000       0.00000000    -203.84907532
Os       0.00000000       0.00000000       1.41454545       0.00000000       0.00000000     203.84907532
2
Properties=species:S:1:pos:R:3:forces:R:3 energy=16.808967303531297 pbc="F F F"
Os       0.00000000       0.00000000       0.00000000       0.00000000       0.00000000    -159.19490051
Os       0.00000000       0.00000000       1.47333333       0.00000000       0.00000000     159.19490051
2
Properties=species:S:1:pos:R:3:forces:R:3 energy=8.771520419050733 pbc="F F F"
Os       0.00000000       0.00000000       0.00000000       0.00000000       0.00000000    -114.31256104
Os       0.00000000       0.00000000       1.53212121       0.00000000       0.00000000     114.31256104
2
Properties=species:S:1:pos:R:3:forces:R:3 energy=3.2228849639737964 pbc="F F F"
Os       0.00000000       0.00000000       0.00000000       0.00000000       0.00000000     -76.86365509
Os       0.00000000       0.00000000       1.59090909       0.00000000       0.00000000      76.86365509
2
Properties=species:S:1:pos:R:3:forces:R:3 energy=-0.5799342256430199 pbc="F F F"
Os       0.00000000       0.00000000       0.00000000       0.00000000       0.00000000     -54.75428009
Os       0.00000000       0.00000000       1.64969697       0.00000000       0.00000000      54.75428009
2
Properties=species:S:1:pos:R:3:forces:R:3 energy=-3.389796100673551 pbc="F F F"
Os       0.00000000       0.00000000       0.00000000       0.00000000       0.00000000     -41.73933411
Os       0.00000000       0.00000000       1.70848485       0.00000000       0.00000000      41.73933411
2
Properties=species:S:1:pos:R:3:forces:R:3 energy=-5.559919573028153 pbc="F F F"
Os       0.00000000       0.00000000       0.00000000       0.00000000       0.00000000     -32.52950668
Os       0.00000000       0.00000000       1.76727273       0.00000000       0.00000000      32.52950668
2
Properties=species:S:1:pos:R:3:forces:R:3 energy=-7.2526834148620996 pbc="F F F"
Os       0.00000000       0.00000000       0.00000000       0.00000000       0.00000000     -25.29169655
Os       0.00000000       0.00000000       1.82606061       0.00000000       0.00000000      25.29169655
2
Properties=species:S:1:pos:R:3:forces:R:3 energy=-8.554276527063717 pbc="F F F"
Os       0.00000000       0.00000000       0.00000000       0.00000000       0.00000000     -19.12825584
Os       0.00000000       0.00000000       1.88484848       0.00000000       0.00000000      19.12825584
2
Properties=species:S:1:pos:R:3:forces:R:3 energy=-9.515853985629912 pbc="F F F"
Os       0.00000000       0.00000000       0.00000000       0.00000000       0.00000000     -13.69535637
Os       0.00000000       0.00000000       1.94363636       0.00000000       0.00000000      13.69535637
2
Properties=species:S:1:pos:R:3:forces:R:3 energy=-10.177436325943752 pbc="F F F"
Os       0.00000000       0.00000000       0.00000000       0.00000000       0.00000000      -8.92645073
Os       0.00000000       0.00000000       2.00242424       0.00000000       0.00000000       8.92645073
2
Properties=species:S:1:pos:R:3:forces:R:3 energy=-10.579795209458577 pbc="F F F"
Os       0.00000000       0.00000000       0.00000000       0.00000000       0.00000000      -4.89240074
Os       0.00000000       0.00000000       2.06121212       0.00000000       0.00000000       4.89240074
2
Properties=species:S:1:pos:R:3:forces:R:3 energy=-10.7684465767742 pbc="F F F"
Os       0.00000000       0.00000000       0.00000000       0.00000000       0.00000000      -1.66013885
Os       0.00000000       0.00000000       2.12000000       0.00000000       0.00000000       1.66013885
2
Properties=species:S:1:pos:R:3:forces:R:3 energy=-10.790180302667384 pbc="F F F"
Os       0.00000000       0.00000000       0.00000000       0.00000000       0.00000000       0.79987681
Os       0.00000000       0.00000000       2.17878788       0.00000000       0.00000000      -0.79987681
2
Properties=species:S:1:pos:R:3:forces:R:3 energy=-10.687231896046816 pbc="F F F"
Os       0.00000000       0.00000000       0.00000000       0.00000000       0.00000000       2.60589767
Os       0.00000000       0.00000000       2.23757576       0.00000000       0.00000000      -2.60589767
2
Properties=species:S:1:pos:R:3:forces:R:3 energy=-10.493794177563723 pbc="F F F"
Os       0.00000000       0.00000000       0.00000000       0.00000000       0.00000000       3.89950705
Os       0.00000000       0.00000000       2.29636364       0.00000000       0.00000000      -3.89950705
2
Properties=species:S:1:pos:R:3:forces:R:3 energy=-10.236952332960964 pbc="F F F"
Os       0.00000000       0.00000000       0.00000000       0.00000000       0.00000000       4.77190638
Os       0.00000000       0.00000000       2.35515152       0.00000000       0.00000000      -4.77190638
2
Properties=species:S:1:pos:R:3:forces:R:3 energy=-9.940413685007917 pbc="F F F"
Os       0.00000000       0.00000000       0.00000000       0.00000000       0.00000000       5.25286484
Os       0.00000000       0.00000000       2.41393939       0.00000000       0.00000000      -5.25286484
2
Properties=species:S:1:pos:R:3:forces:R:3 energy=-9.626320151923844 pbc="F F F"
Os       0.00000000       0.00000000       0.00000000       0.00000000       0.00000000       5.38014078
Os       0.00000000       0.00000000       2.47272727       0.00000000       0.00000000      -5.38014078
2
Properties=species:S:1:pos:R:3:forces:R:3 energy=-9.312853858002562 pbc="F F F"
Os       0.00000000       0.00000000       0.00000000       0.00000000       0.00000000       5.25248814
Os       0.00000000       0.00000000       2.53151515       0.00000000       0.00000000      -5.25248814
2
Properties=species:S:1:pos:R:3:forces:R:3 energy=-9.011288713791808 pbc="F F F"
Os       0.00000000       0.00000000       0.00000000       0.00000000       0.00000000       4.99378538
Os       0.00000000       0.00000000       2.59030303       0.00000000       0.00000000      -4.99378538
2
Properties=species:S:1:pos:R:3:forces:R:3 energy=-8.726697655671188 pbc="F F F"
Os       0.00000000       0.00000000       0.00000000       0.00000000       0.00000000       4.68200541
Os       0.00000000       0.00000000       2.64909091       0.00000000       0.00000000      -4.68200541
2
Properties=species:S:1:pos:R:3:forces:R:3 energy=-8.461516434731916 pbc="F F F"
Os       0.00000000       0.00000000       0.00000000       0.00000000       0.00000000       4.33304262
Os       0.00000000       0.00000000       2.70787879       0.00000000       0.00000000      -4.33304262
2
Properties=species:S:1:pos:R:3:forces:R:3 energy=-8.217950269272459 pbc="F F F"
Os       0.00000000       0.00000000       0.00000000       0.00000000       0.00000000       3.94879627
Os       0.00000000       0.00000000       2.76666667       0.00000000       0.00000000      -3.94879627
2
Properties=species:S:1:pos:R:3:forces:R:3 energy=-7.997393754555473 pbc="F F F"
Os       0.00000000       0.00000000       0.00000000       0.00000000       0.00000000       3.55683088
Os       0.00000000       0.00000000       2.82545455       0.00000000       0.00000000      -3.55683088
2
Properties=species:S:1:pos:R:3:forces:R:3 energy=-7.79914946731746 pbc="F F F"
Os       0.00000000       0.00000000       0.00000000       0.00000000       0.00000000       3.19499898
Os       0.00000000       0.00000000       2.88424242       0.00000000       0.00000000      -3.19499898
2
Properties=species:S:1:pos:R:3:forces:R:3 energy=-7.620746848313756 pbc="F F F"
Os       0.00000000       0.00000000       0.00000000       0.00000000       0.00000000       2.88304210
Os       0.00000000       0.00000000       2.94303030       0.00000000       0.00000000      -2.88304210
2
Properties=species:S:1:pos:R:3:forces:R:3 energy=-7.45922349532537 pbc="F F F"
Os       0.00000000       0.00000000       0.00000000       0.00000000       0.00000000       2.61926532
Os       0.00000000       0.00000000       3.00181818       0.00000000       0.00000000      -2.61926532
2
Properties=species:S:1:pos:R:3:forces:R:3 energy=-7.312028427451446 pbc="F F F"
Os       0.00000000       0.00000000       0.00000000       0.00000000       0.00000000       2.39430571
Os       0.00000000       0.00000000       3.06060606       0.00000000       0.00000000      -2.39430571
2
Properties=species:S:1:pos:R:3:forces:R:3 energy=-7.177010910486579 pbc="F F F"
Os       0.00000000       0.00000000       0.00000000       0.00000000       0.00000000       2.20534468
Os       0.00000000       0.00000000       3.11939394       0.00000000       0.00000000      -2.20534468
2
Properties=species:S:1:pos:R:3:forces:R:3 energy=-7.051984115282744 pbc="F F F"
Os       0.00000000       0.00000000       0.00000000       0.00000000       0.00000000       2.05433011
Os       0.00000000       0.00000000       3.17818182       0.00000000       0.00000000      -2.05433011
2
Properties=species:S:1:pos:R:3:forces:R:3 energy=-6.934843648877543 pbc="F F F"
Os       0.00000000       0.00000000       0.00000000       0.00000000       0.00000000       1.93487096
Os       0.00000000       0.00000000       3.23696970       0.00000000       0.00000000      -1.93487096
2
Properties=species:S:1:pos:R:3:forces:R:3 energy=-6.824228477997888 pbc="F F F"
Os       0.00000000       0.00000000       0.00000000       0.00000000       0.00000000       1.82882893
Os       0.00000000       0.00000000       3.29575758       0.00000000       0.00000000      -1.82882893
2
Properties=species:S:1:pos:R:3:forces:R:3 energy=-6.719912805242179 pbc="F F F"
Os       0.00000000       0.00000000       0.00000000       0.00000000       0.00000000       1.71839750
Os       0.00000000       0.00000000       3.35454545       0.00000000       0.00000000      -1.71839750
2
Properties=species:S:1:pos:R:3:forces:R:3 energy=-6.622390111375507 pbc="F F F"
Os       0.00000000       0.00000000       0.00000000       0.00000000       0.00000000       1.59794986
Os       0.00000000       0.00000000       3.41333333       0.00000000       0.00000000      -1.59794986
2
Properties=species:S:1:pos:R:3:forces:R:3 energy=-6.532120734644569 pbc="F F F"
Os       0.00000000       0.00000000       0.00000000       0.00000000       0.00000000       1.47306073
Os       0.00000000       0.00000000       3.47212121       0.00000000       0.00000000      -1.47306073
2
Properties=species:S:1:pos:R:3:forces:R:3 energy=-6.449130977440498 pbc="F F F"
Os       0.00000000       0.00000000       0.00000000       0.00000000       0.00000000       1.35126674
Os       0.00000000       0.00000000       3.53090909       0.00000000       0.00000000      -1.35126674
2
Properties=species:S:1:pos:R:3:forces:R:3 energy=-6.373120123730739 pbc="F F F"
Os       0.00000000       0.00000000       0.00000000       0.00000000       0.00000000       1.23562884
Os       0.00000000       0.00000000       3.58969697       0.00000000       0.00000000      -1.23562884
2
Properties=species:S:1:pos:R:3:forces:R:3 energy=-6.303748938211058 pbc="F F F"
Os       0.00000000       0.00000000       0.00000000       0.00000000       0.00000000       1.12513292
Os       0.00000000       0.00000000       3.64848485       0.00000000       0.00000000      -1.12513292
2
Properties=species:S:1:pos:R:3:forces:R:3 energy=-6.240761809477943 pbc="F F F"
Os       0.00000000       0.00000000       0.00000000       0.00000000       0.00000000       1.01837587
Os       0.00000000       0.00000000       3.70727273       0.00000000       0.00000000      -1.01837587
2
Properties=species:S:1:pos:R:3:forces:R:3 energy=-6.183921445512692 pbc="F F F"
Os       0.00000000       0.00000000       0.00000000       0.00000000       0.00000000       0.91633576
Os       0.00000000       0.00000000       3.76606061       0.00000000       0.00000000      -0.91633576
2
Properties=species:S:1:pos:R:3:forces:R:3 energy=-6.132860157508848 pbc="F F F"
Os       0.00000000       0.00000000       0.00000000       0.00000000       0.00000000       0.82258153
Os       0.00000000       0.00000000       3.82484848       0.00000000       0.00000000      -0.82258153
2
Properties=species:S:1:pos:R:3:forces:R:3 energy=-6.086956397062091 pbc="F F F"
Os       0.00000000       0.00000000       0.00000000       0.00000000       0.00000000       0.74153179
Os       0.00000000       0.00000000       3.88363636       0.00000000       0.00000000      -0.74153179
2
Properties=species:S:1:pos:R:3:forces:R:3 energy=-6.04536104240256 pbc="F F F"
Os       0.00000000       0.00000000       0.00000000       0.00000000       0.00000000       0.67637384
Os       0.00000000       0.00000000       3.94242424       0.00000000       0.00000000      -0.67637384
2
Properties=species:S:1:pos:R:3:forces:R:3 energy=-6.007109477301789 pbc="F F F"
Os       0.00000000       0.00000000       0.00000000       0.00000000       0.00000000       0.62758017
Os       0.00000000       0.00000000       4.00121212       0.00000000       0.00000000      -0.62758017
2
Properties=species:S:1:pos:R:3:forces:R:3 energy=-5.971301819679392 pbc="F F F"
Os       0.00000000       0.00000000       0.00000000       0.00000000       0.00000000       0.59252214
Os       0.00000000       0.00000000       4.06000000       0.00000000       0.00000000      -0.59252214
2
Properties=species:S:1:pos:R:3:forces:R:3 energy=-5.937275695045443 pbc="F F F"
Os       0.00000000       0.00000000       0.00000000       0.00000000       0.00000000       0.56595737
Os       0.00000000       0.00000000       4.11878788       0.00000000       0.00000000      -0.56595737
2
Properties=species:S:1:pos:R:3:forces:R:3 energy=-5.904725360258827 pbc="F F F"
Os       0.00000000       0.00000000       0.00000000       0.00000000       0.00000000       0.54108840
Os       0.00000000       0.00000000       4.17757576       0.00000000       0.00000000      -0.54108840
2
Properties=species:S:1:pos:R:3:forces:R:3 energy=-5.873760885187837 pbc="F F F"
Os       0.00000000       0.00000000       0.00000000       0.00000000       0.00000000       0.51091093
Os       0.00000000       0.00000000       4.23636364       0.00000000       0.00000000      -0.51091093
2
Properties=species:S:1:pos:R:3:forces:R:3 energy=-5.844875715112122 pbc="F F F"
Os       0.00000000       0.00000000       0.00000000       0.00000000       0.00000000       0.46950722
Os       0.00000000       0.00000000       4.29515152       0.00000000       0.00000000      -0.46950722
2
Properties=species:S:1:pos:R:3:forces:R:3 energy=-5.81885371281942 pbc="F F F"
Os       0.00000000       0.00000000       0.00000000       0.00000000       0.00000000       0.41315186
Os       0.00000000       0.00000000       4.35393939       0.00000000       0.00000000      -0.41315186
2
Properties=species:S:1:pos:R:3:forces:R:3 energy=-5.796610311643254 pbc="F F F"
Os       0.00000000       0.00000000       0.00000000       0.00000000       0.00000000       0.34105584
Os       0.00000000       0.00000000       4.41272727       0.00000000       0.00000000      -0.34105584
2
Properties=species:S:1:pos:R:3:forces:R:3 energy=-5.77901366668256 pbc="F F F"
Os       0.00000000       0.00000000       0.00000000       0.00000000       0.00000000       0.25577721
Os       0.00000000       0.00000000       4.47151515       0.00000000       0.00000000      -0.25577721
2
Properties=species:S:1:pos:R:3:forces:R:3 energy=-5.766683454863505 pbc="F F F"
Os       0.00000000       0.00000000       0.00000000       0.00000000       0.00000000       0.16310549
Os       0.00000000       0.00000000       4.53030303       0.00000000       0.00000000      -0.16310549
2
Properties=species:S:1:pos:R:3:forces:R:3 energy=-5.759819048835781 pbc="F F F"
Os       0.00000000       0.00000000       0.00000000       0.00000000       0.00000000       0.07137831
Os       0.00000000       0.00000000       4.58909091       0.00000000       0.00000000      -0.07137831
2
Properties=species:S:1:pos:R:3:forces:R:3 energy=-5.758084125548143 pbc="F F F"
Os       0.00000000       0.00000000       0.00000000       0.00000000       0.00000000      -0.00979196
Os       0.00000000       0.00000000       4.64787879       0.00000000       0.00000000       0.00979196
2
Properties=species:S:1:pos:R:3:forces:R:3 energy=-5.760581308347823 pbc="F F F"
Os       0.00000000       0.00000000       0.00000000       0.00000000       0.00000000      -0.07119947
Os       0.00000000       0.00000000       4.70666667       0.00000000       0.00000000       0.07119947
2
Properties=species:S:1:pos:R:3:forces:R:3 energy=-5.765928845896165 pbc="F F F"
Os       0.00000000       0.00000000       0.00000000       0.00000000       0.00000000      -0.10586107
Os       0.00000000       0.00000000       4.76545455       0.00000000       0.00000000       0.10586107
2
Properties=species:S:1:pos:R:3:forces:R:3 energy=-5.77244077108322 pbc="F F F"
Os       0.00000000       0.00000000       0.00000000       0.00000000       0.00000000      -0.11072077
Os       0.00000000       0.00000000       4.82424242       0.00000000       0.00000000       0.11072077
2
Properties=species:S:1:pos:R:3:forces:R:3 energy=-5.778399152870331 pbc="F F F"
Os       0.00000000       0.00000000       0.00000000       0.00000000       0.00000000      -0.08783683
Os       0.00000000       0.00000000       4.88303030       0.00000000       0.00000000       0.08783683
2
Properties=species:S:1:pos:R:3:forces:R:3 energy=-5.782369086078905 pbc="F F F"
Os       0.00000000       0.00000000       0.00000000       0.00000000       0.00000000      -0.04474488
Os       0.00000000       0.00000000       4.94181818       0.00000000       0.00000000       0.04474488
2
Properties=species:S:1:pos:R:3:forces:R:3 energy=-5.783499149485242 pbc="F F F"
Os       0.00000000       0.00000000       0.00000000       0.00000000       0.00000000       0.00650248
Os       0.00000000       0.00000000       5.00060606       0.00000000       0.00000000      -0.00650248
2
Properties=species:S:1:pos:R:3:forces:R:3 energy=-5.781718241364378 pbc="F F F"
Os       0.00000000       0.00000000       0.00000000       0.00000000       0.00000000       0.05202893
Os       0.00000000       0.00000000       5.05939394       0.00000000       0.00000000      -0.05202893
2
Properties=species:S:1:pos:R:3:forces:R:3 energy=-5.777720704087435 pbc="F F F"
Os       0.00000000       0.00000000       0.00000000       0.00000000       0.00000000       0.08050255
Os       0.00000000       0.00000000       5.11818182       0.00000000       0.00000000      -0.08050255
2
Properties=species:S:1:pos:R:3:forces:R:3 energy=-5.772670694586995 pbc="F F F"
Os       0.00000000       0.00000000       0.00000000       0.00000000       0.00000000       0.08804674
Os       0.00000000       0.00000000       5.17696970       0.00000000       0.00000000      -0.08804674
2
Properties=species:S:1:pos:R:3:forces:R:3 energy=-5.767663309267093 pbc="F F F"
Os       0.00000000       0.00000000       0.00000000       0.00000000       0.00000000       0.08082955
Os       0.00000000       0.00000000       5.23575758       0.00000000       0.00000000      -0.08082955
2
Properties=species:S:1:pos:R:3:forces:R:3 energy=-5.763218648690981 pbc="F F F"
Os       0.00000000       0.00000000       0.00000000       0.00000000       0.00000000       0.07072271
Os       0.00000000       0.00000000       5.29454545       0.00000000       0.00000000      -0.07072271
2
Properties=species:S:1:pos:R:3:forces:R:3 energy=-5.759329981301932 pbc="F F F"
Os       0.00000000       0.00000000       0.00000000       0.00000000       0.00000000       0.06058310
Os       0.00000000       0.00000000       5.35333333       0.00000000       0.00000000      -0.06058310
2
Properties=species:S:1:pos:R:3:forces:R:3 energy=-5.756476033864062 pbc="F F F"
Os       0.00000000       0.00000000       0.00000000       0.00000000       0.00000000       0.03102805
Os       0.00000000       0.00000000       5.41212121       0.00000000       0.00000000      -0.03102805
2
Properties=species:S:1:pos:R:3:forces:R:3 energy=-5.756318664413397 pbc="F F F"
Os       0.00000000       0.00000000       0.00000000       0.00000000       0.00000000      -0.02830125
Os       0.00000000       0.00000000       5.47090909       0.00000000       0.00000000       0.02830125
2
Properties=species:S:1:pos:R:3:forces:R:3 energy=-5.759481265266521 pbc="F F F"
Os       0.00000000       0.00000000       0.00000000       0.00000000       0.00000000      -0.07205748
Os       0.00000000       0.00000000       5.52969697       0.00000000       0.00000000       0.07205748
2
Properties=species:S:1:pos:R:3:forces:R:3 energy=-5.763896536522602 pbc="F F F"
Os       0.00000000       0.00000000       0.00000000       0.00000000       0.00000000      -0.07275394
Os       0.00000000       0.00000000       5.58848485       0.00000000       0.00000000       0.07275394
2
Properties=species:S:1:pos:R:3:forces:R:3 energy=-5.767825913983796 pbc="F F F"
Os       0.00000000       0.00000000       0.00000000       0.00000000       0.00000000      -0.06236771
Os       0.00000000       0.00000000       5.64727273       0.00000000       0.00000000       0.06236771
2
Properties=species:S:1:pos:R:3:forces:R:3 energy=-5.771558004508057 pbc="F F F"
Os       0.00000000       0.00000000       0.00000000       0.00000000       0.00000000      -0.06690449
Os       0.00000000       0.00000000       5.70606061       0.00000000       0.00000000       0.06690449
2
Properties=species:S:1:pos:R:3:forces:R:3 energy=-5.775566635342998 pbc="F F F"
Os       0.00000000       0.00000000       0.00000000       0.00000000       0.00000000      -0.06413945
Os       0.00000000       0.00000000       5.76484848       0.00000000       0.00000000       0.06413945
2
Properties=species:S:1:pos:R:3:forces:R:3 energy=-5.778415715600032 pbc="F F F"
Os       0.00000000       0.00000000       0.00000000       0.00000000       0.00000000      -0.02946407
Os       0.00000000       0.00000000       5.82363636       0.00000000       0.00000000       0.02946407
2
Properties=species:S:1:pos:R:3:forces:R:3 energy=-5.779112362689753 pbc="F F F"
Os       0.00000000       0.00000000       0.00000000       0.00000000       0.00000000       0.00182931
Os       0.00000000       0.00000000       5.88242424       0.00000000       0.00000000      -0.00182931
2
Properties=species:S:1:pos:R:3:forces:R:3 energy=-5.7786614912440735 pbc="F F F"
Os       0.00000000       0.00000000       0.00000000       0.00000000       0.00000000       0.01079951
Os       0.00000000       0.00000000       5.94121212       0.00000000       0.00000000      -0.01079951
2
Properties=species:S:1:pos:R:3:forces:R:3 energy=-5.777999216711681 pbc="F F F"
Os       0.00000000       0.00000000       0.00000000       0.00000000       0.00000000       0.01128462
Os       0.00000000       0.00000000       6.00000000       0.00000000       0.00000000      -0.01128462
