2
Properties=species:S:1:pos:R:3:forces:R:3 energy=1621.6037317601254 pbc="F F F"
P        0.00000000       0.00000000       0.00000000       0.00000000       0.00000000  -21847.59570312
P        0.00000000       0.00000000       0.18000000       0.00000000       0.00000000   21847.59570312
2
Properties=species:S:1:pos:R:3:forces:R:3 energy=808.603182443719 pbc="F F F"
P        0.00000000       0.00000000       0.00000000       0.00000000       0.00000000   -8374.83886719
P        0.00000000       0.00000000       0.23878788       0.00000000       0.00000000    8374.83886719
2
Properties=species:S:1:pos:R:3:forces:R:3 energy=473.28409065317965 pbc="F F F"
P        0.00000000       0.00000000       0.00000000       0.00000000       0.00000000   -3765.96899414
P        0.00000000       0.00000000       0.29757576       0.00000000       0.00000000    3765.96899414
2
Properties=species:S:1:pos:R:3:forces:R:3 energy=314.18295540560905 pbc="F F F"
P        0.00000000       0.00000000       0.00000000       0.00000000       0.00000000   -1904.67175293
P        0.00000000       0.00000000       0.35636364       0.00000000       0.00000000    1904.67175293
2
Properties=species:S:1:pos:R:3:forces:R:3 energy=229.7677027390691 pbc="F F F"
P        0.00000000       0.00000000       0.00000000       0.00000000       0.00000000   -1073.29284668
P        0.00000000       0.00000000       0.41515152       0.00000000       0.00000000    1073.29284668
2
Properties=species:S:1:pos:R:3:forces:R:3 energy=179.49986524950108 pbc="F F F"
P        0.00000000       0.00000000       0.00000000       0.00000000       0.00000000    -684.98083496
P        0.00000000       0.00000000       0.47393939       0.00000000       0.00000000     684.98083496
2
Properties=species:S:1:pos:R:3:forces:R:3 energy=145.33111836778318 pbc="F F F"
P        0.00000000       0.00000000       0.00000000       0.00000000       0.00000000    -499.37991333
P        0.00000000       0.00000000       0.53272727       0.00000000       0.00000000     499.37991333
2
Properties=species:S:1:pos:R:3:forces:R:3 energy=119.12588013953962 pbc="F F F"
P        0.00000000       0.00000000       0.00000000       0.00000000       0.00000000    -399.79586792
P        0.00000000       0.00000000       0.59151515       0.00000000       0.00000000     399.79586792
2
Properties=species:S:1:pos:R:3:forces:R:3 energy=97.98113546289771 pbc="F F F"
P        0.00000000       0.00000000       0.00000000       0.00000000       0.00000000    -320.44860840
P        0.00000000       0.00000000       0.65030303       0.00000000       0.00000000     320.44860840
2
Properties=species:S:1:pos:R:3:forces:R:3 energy=80.7337373905438 pbc="F F F"
P        0.00000000       0.00000000       0.00000000       0.00000000       0.00000000    -274.75347900
P        0.00000000       0.00000000       0.70909091       0.00000000       0.00000000     274.75347900
2
Properties=species:S:1:pos:R:3:forces:R:3 energy=65.81007756838987 pbc="F F F"
P        0.00000000       0.00000000       0.00000000       0.00000000       0.00000000    -227.57713318
P        0.00000000       0.00000000       0.76787879       0.00000000       0.00000000     227.57713318
2
Properties=species:S:1:pos:R:3:forces:R:3 energy=54.25121365279795 pbc="F F F"
P        0.00000000       0.00000000       0.00000000       0.00000000       0.00000000    -167.31440735
P        0.00000000       0.00000000       0.82666667       0.00000000       0.00000000     167.31440735
2
Properties=species:S:1:pos:R:3:forces:R:3 energy=45.66555179302594 pbc="F F F"
P        0.00000000       0.00000000       0.00000000       0.00000000       0.00000000    -128.44604492
P        0.00000000       0.00000000       0.88545455       0.00000000       0.00000000     128.44604492
2
Properties=species:S:1:pos:R:3:forces:R:3 energy=38.834288659339855 pbc="F F F"
P        0.00000000       0.00000000       0.00000000       0.00000000       0.00000000    -107.73352814
P        0.00000000       0.00000000       0.94424242       0.00000000       0.00000000     107.73352814
2
Properties=species:S:1:pos:R:3:forces:R:3 energy=32.604199439719864 pbc="F F F"
P        0.00000000       0.00000000       0.00000000       0.00000000       0.00000000    -105.34238434
P        0.00000000       0.00000000       1.00303030       0.00000000       0.00000000     105.34238434
2
Properties=species:S:1:pos:R:3:forces:R:3 energy=26.37591140978061 pbc="F F F"
P        0.00000000       0.00000000       0.00000000       0.00000000       0.00000000    -107.20822906
P        0.00000000       0.00000000       1.06181818       0.00000000       0.00000000     107.20822906
2
Properties=species:S:1:pos:R:3:forces:R:3 energy=20.074828341890836 pbc="F F F"
P        0.00000000       0.00000000       0.00000000       0.00000000       0.00000000    -105.35115051
P        0.00000000       0.00000000       1.12060606       0.00000000       0.00000000     105.35115051
2
Properties=species:S:1:pos:R:3:forces:R:3 energy=14.124341787289891 pbc="F F F"
P        0.00000000       0.00000000       0.00000000       0.00000000       0.00000000     -96.89330292
P        0.00000000       0.00000000       1.17939394       0.00000000       0.00000000      96.89330292
2
Properties=species:S:1:pos:R:3:forces:R:3 energy=8.744697354396028 pbc="F F F"
P        0.00000000       0.00000000       0.00000000       0.00000000       0.00000000     -84.78526306
P        0.00000000       0.00000000       1.23818182       0.00000000       0.00000000      84.78526306
2
Properties=species:S:1:pos:R:3:forces:R:3 energy=4.318348296263776 pbc="F F F"
P        0.00000000       0.00000000       0.00000000       0.00000000       0.00000000     -65.12930298
P        0.00000000       0.00000000       1.29696970       0.00000000       0.00000000      65.12930298
2
Properties=species:S:1:pos:R:3:forces:R:3 energy=1.0429623184915355 pbc="F F F"
P        0.00000000       0.00000000       0.00000000       0.00000000       0.00000000     -47.42034912
P        0.00000000       0.00000000       1.35575758       0.00000000       0.00000000      47.42034912
2
Properties=species:S:1:pos:R:3:forces:R:3 energy=-1.4020134857078173 pbc="F F F"
P        0.00000000       0.00000000       0.00000000       0.00000000       0.00000000     -36.80425644
P        0.00000000       0.00000000       1.41454545       0.00000000       0.00000000      36.80425644
2
Properties=species:S:1:pos:R:3:forces:R:3 energy=-3.3646809944972143 pbc="F F F"
P        0.00000000       0.00000000       0.00000000       0.00000000       0.00000000     -30.31170273
P        0.00000000       0.00000000       1.47333333       0.00000000       0.00000000      30.31170273
2
Properties=species:S:1:pos:R:3:forces:R:3 energy=-4.981903625765029 pbc="F F F"
P        0.00000000       0.00000000       0.00000000       0.00000000       0.00000000     -24.73524666
P        0.00000000       0.00000000       1.53212121       0.00000000       0.00000000      24.73524666
2
Properties=species:S:1:pos:R:3:forces:R:3 energy=-6.276140297284869 pbc="F F F"
P        0.00000000       0.00000000       0.00000000       0.00000000       0.00000000     -19.35109901
P        0.00000000       0.00000000       1.59090909       0.00000000       0.00000000      19.35109901
2
Properties=species:S:1:pos:R:3:forces:R:3 energy=-7.26690560076235 pbc="F F F"
P        0.00000000       0.00000000       0.00000000       0.00000000       0.00000000     -14.45369244
P        0.00000000       0.00000000       1.64969697       0.00000000       0.00000000      14.45369244
2
Properties=species:S:1:pos:R:3:forces:R:3 energy=-7.987152991923573 pbc="F F F"
P        0.00000000       0.00000000       0.00000000       0.00000000       0.00000000     -10.14512444
P        0.00000000       0.00000000       1.70848485       0.00000000       0.00000000      10.14512444
2
Properties=species:S:1:pos:R:3:forces:R:3 energy=-8.470770416450943 pbc="F F F"
P        0.00000000       0.00000000       0.00000000       0.00000000       0.00000000      -6.40280104
P        0.00000000       0.00000000       1.76727273       0.00000000       0.00000000       6.40280104
2
Properties=species:S:1:pos:R:3:forces:R:3 energy=-8.751550386070964 pbc="F F F"
P        0.00000000       0.00000000       0.00000000       0.00000000       0.00000000      -3.25165248
P        0.00000000       0.00000000       1.82606061       0.00000000       0.00000000       3.25165248
2
Properties=species:S:1:pos:R:3:forces:R:3 energy=-8.865328011833476 pbc="F F F"
P        0.00000000       0.00000000       0.00000000       0.00000000       0.00000000      -0.72300106
P        0.00000000       0.00000000       1.88484848       0.00000000       0.00000000       0.72300106
2
Properties=species:S:1:pos:R:3:forces:R:3 energy=-8.848289363272412 pbc="F F F"
P        0.00000000       0.00000000       0.00000000       0.00000000       0.00000000       1.20910800
P        0.00000000       0.00000000       1.94363636       0.00000000       0.00000000      -1.20910800
2
Properties=species:S:1:pos:R:3:forces:R:3 energy=-8.733119349758619 pbc="F F F"
P        0.00000000       0.00000000       0.00000000       0.00000000       0.00000000       2.63447928
P        0.00000000       0.00000000       2.00242424       0.00000000       0.00000000      -2.63447928
2
Properties=species:S:1:pos:R:3:forces:R:3 energy=-8.54608172813414 pbc="F F F"
P        0.00000000       0.00000000       0.00000000       0.00000000       0.00000000       3.67448592
P        0.00000000       0.00000000       2.06121212       0.00000000       0.00000000      -3.67448592
2
Properties=species:S:1:pos:R:3:forces:R:3 energy=-8.306444071945466 pbc="F F F"
P        0.00000000       0.00000000       0.00000000       0.00000000       0.00000000       4.43992472
P        0.00000000       0.00000000       2.12000000       0.00000000       0.00000000      -4.43992472
2
Properties=species:S:1:pos:R:3:forces:R:3 energy=-8.027980600607254 pbc="F F F"
P        0.00000000       0.00000000       0.00000000       0.00000000       0.00000000       5.00372601
P        0.00000000       0.00000000       2.17878788       0.00000000       0.00000000      -5.00372601
2
Properties=species:S:1:pos:R:3:forces:R:3 energy=-7.721378521450178 pbc="F F F"
P        0.00000000       0.00000000       0.00000000       0.00000000       0.00000000       5.40086222
P        0.00000000       0.00000000       2.23757576       0.00000000       0.00000000      -5.40086222
2
Properties=species:S:1:pos:R:3:forces:R:3 energy=-7.395930286781524 pbc="F F F"
P        0.00000000       0.00000000       0.00000000       0.00000000       0.00000000       5.64694214
P        0.00000000       0.00000000       2.29636364       0.00000000       0.00000000      -5.64694214
2
Properties=species:S:1:pos:R:3:forces:R:3 energy=-7.06014874232967 pbc="F F F"
P        0.00000000       0.00000000       0.00000000       0.00000000       0.00000000       5.75460529
P        0.00000000       0.00000000       2.35515152       0.00000000       0.00000000      -5.75460529
2
Properties=species:S:1:pos:R:3:forces:R:3 energy=-6.721825904927432 pbc="F F F"
P        0.00000000       0.00000000       0.00000000       0.00000000       0.00000000       5.73470879
P        0.00000000       0.00000000       2.41393939       0.00000000       0.00000000      -5.73470879
2
Properties=species:S:1:pos:R:3:forces:R:3 energy=-6.388248793850676 pbc="F F F"
P        0.00000000       0.00000000       0.00000000       0.00000000       0.00000000       5.59407616
P        0.00000000       0.00000000       2.47272727       0.00000000       0.00000000      -5.59407616
2
Properties=species:S:1:pos:R:3:forces:R:3 energy=-6.066324141910201 pbc="F F F"
P        0.00000000       0.00000000       0.00000000       0.00000000       0.00000000       5.34011745
P        0.00000000       0.00000000       2.53151515       0.00000000       0.00000000      -5.34011745
2
Properties=species:S:1:pos:R:3:forces:R:3 energy=-5.762336759229927 pbc="F F F"
P        0.00000000       0.00000000       0.00000000       0.00000000       0.00000000       4.98661947
P        0.00000000       0.00000000       2.59030303       0.00000000       0.00000000      -4.98661947
2
Properties=species:S:1:pos:R:3:forces:R:3 energy=-5.48157925386665 pbc="F F F"
P        0.00000000       0.00000000       0.00000000       0.00000000       0.00000000       4.55351734
P        0.00000000       0.00000000       2.64909091       0.00000000       0.00000000      -4.55351734
2
Properties=species:S:1:pos:R:3:forces:R:3 energy=-5.22805005552917 pbc="F F F"
P        0.00000000       0.00000000       0.00000000       0.00000000       0.00000000       4.06459045
P        0.00000000       0.00000000       2.70787879       0.00000000       0.00000000      -4.06459045
2
Properties=species:S:1:pos:R:3:forces:R:3 energy=-5.00421948445903 pbc="F F F"
P        0.00000000       0.00000000       0.00000000       0.00000000       0.00000000       3.54834533
P        0.00000000       0.00000000       2.76666667       0.00000000       0.00000000      -3.54834533
2
Properties=species:S:1:pos:R:3:forces:R:3 energy=-4.810722713289544 pbc="F F F"
P        0.00000000       0.00000000       0.00000000       0.00000000       0.00000000       3.03861904
P        0.00000000       0.00000000       2.82545455       0.00000000       0.00000000      -3.03861904
2
Properties=species:S:1:pos:R:3:forces:R:3 energy=-4.64616056564753 pbc="F F F"
P        0.00000000       0.00000000       0.00000000       0.00000000       0.00000000       2.56899524
P        0.00000000       0.00000000       2.88424242       0.00000000       0.00000000      -2.56899524
2
Properties=species:S:1:pos:R:3:forces:R:3 energy=-4.507411289861704 pbc="F F F"
P        0.00000000       0.00000000       0.00000000       0.00000000       0.00000000       2.16305566
P        0.00000000       0.00000000       2.94303030       0.00000000       0.00000000      -2.16305566
2
Properties=species:S:1:pos:R:3:forces:R:3 energy=-4.3904405828391795 pbc="F F F"
P        0.00000000       0.00000000       0.00000000       0.00000000       0.00000000       1.82791829
P        0.00000000       0.00000000       3.00181818       0.00000000       0.00000000      -1.82791829
2
Properties=species:S:1:pos:R:3:forces:R:3 energy=-4.291240462601595 pbc="F F F"
P        0.00000000       0.00000000       0.00000000       0.00000000       0.00000000       1.55652595
P        0.00000000       0.00000000       3.06060606       0.00000000       0.00000000      -1.55652595
2
Properties=species:S:1:pos:R:3:forces:R:3 energy=-4.206442927409806 pbc="F F F"
P        0.00000000       0.00000000       0.00000000       0.00000000       0.00000000       1.33557022
P        0.00000000       0.00000000       3.11939394       0.00000000       0.00000000      -1.33557022
2
Properties=species:S:1:pos:R:3:forces:R:3 energy=-4.133483591892215 pbc="F F F"
P        0.00000000       0.00000000       0.00000000       0.00000000       0.00000000       1.15174162
P        0.00000000       0.00000000       3.17818182       0.00000000       0.00000000      -1.15174162
2
Properties=species:S:1:pos:R:3:forces:R:3 energy=-4.070509399179657 pbc="F F F"
P        0.00000000       0.00000000       0.00000000       0.00000000       0.00000000       0.99439007
P        0.00000000       0.00000000       3.23696970       0.00000000       0.00000000      -0.99439007
2
Properties=species:S:1:pos:R:3:forces:R:3 energy=-4.016197285511817 pbc="F F F"
P        0.00000000       0.00000000       0.00000000       0.00000000       0.00000000       0.85605085
P        0.00000000       0.00000000       3.29575758       0.00000000       0.00000000      -0.85605085
2
Properties=species:S:1:pos:R:3:forces:R:3 energy=-3.9695772496531 pbc="F F F"
P        0.00000000       0.00000000       0.00000000       0.00000000       0.00000000       0.73214030
P        0.00000000       0.00000000       3.35454545       0.00000000       0.00000000      -0.73214030
2
Properties=species:S:1:pos:R:3:forces:R:3 energy=-3.9298771142396047 pbc="F F F"
P        0.00000000       0.00000000       0.00000000       0.00000000       0.00000000       0.62042224
P        0.00000000       0.00000000       3.41333333       0.00000000       0.00000000      -0.62042224
2
Properties=species:S:1:pos:R:3:forces:R:3 energy=-3.8964026484314664 pbc="F F F"
P        0.00000000       0.00000000       0.00000000       0.00000000       0.00000000       0.52037007
P        0.00000000       0.00000000       3.47212121       0.00000000       0.00000000      -0.52037007
2
Properties=species:S:1:pos:R:3:forces:R:3 energy=-3.868457001280204 pbc="F F F"
P        0.00000000       0.00000000       0.00000000       0.00000000       0.00000000       0.43244910
P        0.00000000       0.00000000       3.53090909       0.00000000       0.00000000      -0.43244910
2
Properties=species:S:1:pos:R:3:forces:R:3 energy=-3.8453049237748127 pbc="F F F"
P        0.00000000       0.00000000       0.00000000       0.00000000       0.00000000       0.35738549
P        0.00000000       0.00000000       3.58969697       0.00000000       0.00000000      -0.35738549
2
Properties=species:S:1:pos:R:3:forces:R:3 energy=-3.8261765827071113 pbc="F F F"
P        0.00000000       0.00000000       0.00000000       0.00000000       0.00000000       0.29558402
P        0.00000000       0.00000000       3.64848485       0.00000000       0.00000000      -0.29558402
2
Properties=species:S:1:pos:R:3:forces:R:3 energy=-3.810296393480703 pbc="F F F"
P        0.00000000       0.00000000       0.00000000       0.00000000       0.00000000       0.24677269
P        0.00000000       0.00000000       3.70727273       0.00000000       0.00000000      -0.24677269
2
Properties=species:S:1:pos:R:3:forces:R:3 energy=-3.7969277532729078 pbc="F F F"
P        0.00000000       0.00000000       0.00000000       0.00000000       0.00000000       0.20988932
P        0.00000000       0.00000000       3.76606061       0.00000000       0.00000000      -0.20988932
2
Properties=species:S:1:pos:R:3:forces:R:3 energy=-3.785418837240802 pbc="F F F"
P        0.00000000       0.00000000       0.00000000       0.00000000       0.00000000       0.18317878
P        0.00000000       0.00000000       3.82484848       0.00000000       0.00000000      -0.18317878
2
Properties=species:S:1:pos:R:3:forces:R:3 energy=-3.7752354052504677 pbc="F F F"
P        0.00000000       0.00000000       0.00000000       0.00000000       0.00000000       0.16436878
P        0.00000000       0.00000000       3.88363636       0.00000000       0.00000000      -0.16436878
2
Properties=species:S:1:pos:R:3:forces:R:3 energy=-3.765987694075191 pbc="F F F"
P        0.00000000       0.00000000       0.00000000       0.00000000       0.00000000       0.15093297
P        0.00000000       0.00000000       3.94242424       0.00000000       0.00000000      -0.15093297
2
Properties=species:S:1:pos:R:3:forces:R:3 energy=-3.757434231340732 pbc="F F F"
P        0.00000000       0.00000000       0.00000000       0.00000000       0.00000000       0.14033838
P        0.00000000       0.00000000       4.00121212       0.00000000       0.00000000      -0.14033838
2
Properties=species:S:1:pos:R:3:forces:R:3 energy=-3.7494767337004995 pbc="F F F"
P        0.00000000       0.00000000       0.00000000       0.00000000       0.00000000       0.13030060
P        0.00000000       0.00000000       4.06000000       0.00000000       0.00000000      -0.13030060
2
Properties=species:S:1:pos:R:3:forces:R:3 energy=-3.742138786211704 pbc="F F F"
P        0.00000000       0.00000000       0.00000000       0.00000000       0.00000000       0.11900371
P        0.00000000       0.00000000       4.11878788       0.00000000       0.00000000      -0.11900371
2
Properties=species:S:1:pos:R:3:forces:R:3 energy=-3.735533076035799 pbc="F F F"
P        0.00000000       0.00000000       0.00000000       0.00000000       0.00000000       0.10525417
P        0.00000000       0.00000000       4.17757576       0.00000000       0.00000000      -0.10525417
2
Properties=species:S:1:pos:R:3:forces:R:3 energy=-3.729821487836753 pbc="F F F"
P        0.00000000       0.00000000       0.00000000       0.00000000       0.00000000       0.08856365
P        0.00000000       0.00000000       4.23636364       0.00000000       0.00000000      -0.08856365
2
Properties=species:S:1:pos:R:3:forces:R:3 energy=-3.7251742882705985 pbc="F F F"
P        0.00000000       0.00000000       0.00000000       0.00000000       0.00000000       0.06913276
P        0.00000000       0.00000000       4.29515152       0.00000000       0.00000000      -0.06913276
2
Properties=species:S:1:pos:R:3:forces:R:3 energy=-3.721732048704867 pbc="F F F"
P        0.00000000       0.00000000       0.00000000       0.00000000       0.00000000       0.04774433
P        0.00000000       0.00000000       4.35393939       0.00000000       0.00000000      -0.04774433
2
Properties=species:S:1:pos:R:3:forces:R:3 energy=-3.7195761993561156 pbc="F F F"
P        0.00000000       0.00000000       0.00000000       0.00000000       0.00000000       0.02556082
P        0.00000000       0.00000000       4.41272727       0.00000000       0.00000000      -0.02556082
2
Properties=species:S:1:pos:R:3:forces:R:3 energy=-3.718716467549055 pbc="F F F"
P        0.00000000       0.00000000       0.00000000       0.00000000       0.00000000       0.00389060
P        0.00000000       0.00000000       4.47151515       0.00000000       0.00000000      -0.00389060
2
Properties=species:S:1:pos:R:3:forces:R:3 energy=-3.7190850091189165 pbc="F F F"
P        0.00000000       0.00000000       0.00000000       0.00000000       0.00000000      -0.01607152
P        0.00000000       0.00000000       4.53030303       0.00000000       0.00000000       0.01607152
2
Properties=species:S:1:pos:R:3:forces:R:3 energy=-3.7205554708103983 pbc="F F F"
P        0.00000000       0.00000000       0.00000000       0.00000000       0.00000000      -0.03346916
P        0.00000000       0.00000000       4.58909091       0.00000000       0.00000000       0.03346916
2
Properties=species:S:1:pos:R:3:forces:R:3 energy=-3.7229621302882636 pbc="F F F"
P        0.00000000       0.00000000       0.00000000       0.00000000       0.00000000      -0.04791144
P        0.00000000       0.00000000       4.64787879       0.00000000       0.00000000       0.04791144
2
Properties=species:S:1:pos:R:3:forces:R:3 energy=-3.726132184015825 pbc="F F F"
P        0.00000000       0.00000000       0.00000000       0.00000000       0.00000000      -0.05948336
P        0.00000000       0.00000000       4.70666667       0.00000000       0.00000000       0.05948336
2
Properties=species:S:1:pos:R:3:forces:R:3 energy=-3.729907471856043 pbc="F F F"
P        0.00000000       0.00000000       0.00000000       0.00000000       0.00000000      -0.06858428
P        0.00000000       0.00000000       4.76545455       0.00000000       0.00000000       0.06858428
2
Properties=species:S:1:pos:R:3:forces:R:3 energy=-3.734156704527236 pbc="F F F"
P        0.00000000       0.00000000       0.00000000       0.00000000       0.00000000      -0.07566482
P        0.00000000       0.00000000       4.82424242       0.00000000       0.00000000       0.07566482
2
Properties=species:S:1:pos:R:3:forces:R:3 energy=-3.7387679229075697 pbc="F F F"
P        0.00000000       0.00000000       0.00000000       0.00000000       0.00000000      -0.08091044
P        0.00000000       0.00000000       4.88303030       0.00000000       0.00000000       0.08091044
2
Properties=species:S:1:pos:R:3:forces:R:3 energy=-3.7436287013734364 pbc="F F F"
P        0.00000000       0.00000000       0.00000000       0.00000000       0.00000000      -0.08403646
P        0.00000000       0.00000000       4.94181818       0.00000000       0.00000000       0.08403646
2
Properties=species:S:1:pos:R:3:forces:R:3 energy=-3.7485928753204214 pbc="F F F"
P        0.00000000       0.00000000       0.00000000       0.00000000       0.00000000      -0.08430299
P        0.00000000       0.00000000       5.00060606       0.00000000       0.00000000       0.08430299
2
Properties=species:S:1:pos:R:3:forces:R:3 energy=-3.7534672142734973 pbc="F F F"
P        0.00000000       0.00000000       0.00000000       0.00000000       0.00000000      -0.08084394
P        0.00000000       0.00000000       5.05939394       0.00000000       0.00000000       0.08084394
2
Properties=species:S:1:pos:R:3:forces:R:3 energy=-3.7580154963856653 pbc="F F F"
P        0.00000000       0.00000000       0.00000000       0.00000000       0.00000000      -0.07320322
P        0.00000000       0.00000000       5.11818182       0.00000000       0.00000000       0.07320322
2
Properties=species:S:1:pos:R:3:forces:R:3 energy=-3.7619995615750286 pbc="F F F"
P        0.00000000       0.00000000       0.00000000       0.00000000       0.00000000      -0.06180381
P        0.00000000       0.00000000       5.17696970       0.00000000       0.00000000       0.06180381
2
Properties=species:S:1:pos:R:3:forces:R:3 energy=-3.7652346499777214 pbc="F F F"
P        0.00000000       0.00000000       0.00000000       0.00000000       0.00000000      -0.04799688
P        0.00000000       0.00000000       5.23575758       0.00000000       0.00000000       0.04799688
2
Properties=species:S:1:pos:R:3:forces:R:3 energy=-3.7676323307553883 pbc="F F F"
P        0.00000000       0.00000000       0.00000000       0.00000000       0.00000000      -0.03365927
P        0.00000000       0.00000000       5.29454545       0.00000000       0.00000000       0.03365927
2
Properties=species:S:1:pos:R:3:forces:R:3 energy=-3.7692243780071863 pbc="F F F"
P        0.00000000       0.00000000       0.00000000       0.00000000       0.00000000      -0.02099738
P        0.00000000       0.00000000       5.35333333       0.00000000       0.00000000       0.02099738
2
Properties=species:S:1:pos:R:3:forces:R:3 energy=-3.7701858807408883 pbc="F F F"
P        0.00000000       0.00000000       0.00000000       0.00000000       0.00000000      -0.01261831
P        0.00000000       0.00000000       5.41212121       0.00000000       0.00000000       0.01261831
2
Properties=species:S:1:pos:R:3:forces:R:3 energy=-3.7708162089843342 pbc="F F F"
P        0.00000000       0.00000000       0.00000000       0.00000000       0.00000000      -0.00959701
P        0.00000000       0.00000000       5.47090909       0.00000000       0.00000000       0.00959701
2
Properties=species:S:1:pos:R:3:forces:R:3 energy=-3.7713687718325732 pbc="F F F"
P        0.00000000       0.00000000       0.00000000       0.00000000       0.00000000      -0.00935373
P        0.00000000       0.00000000       5.52969697       0.00000000       0.00000000       0.00935373
2
Properties=species:S:1:pos:R:3:forces:R:3 energy=-3.771917030166187 pbc="F F F"
P        0.00000000       0.00000000       0.00000000       0.00000000       0.00000000      -0.00931181
P        0.00000000       0.00000000       5.58848485       0.00000000       0.00000000       0.00931181
2
Properties=species:S:1:pos:R:3:forces:R:3 energy=-3.7724868458891803 pbc="F F F"
P        0.00000000       0.00000000       0.00000000       0.00000000       0.00000000      -0.01050362
P        0.00000000       0.00000000       5.64727273       0.00000000       0.00000000       0.01050362
2
Properties=species:S:1:pos:R:3:forces:R:3 energy=-3.773226917158948 pbc="F F F"
P        0.00000000       0.00000000       0.00000000       0.00000000       0.00000000      -0.01542180
P        0.00000000       0.00000000       5.70606061       0.00000000       0.00000000       0.01542180
2
Properties=species:S:1:pos:R:3:forces:R:3 energy=-3.7743599275241615 pbc="F F F"
P        0.00000000       0.00000000       0.00000000       0.00000000       0.00000000      -0.02295937
P        0.00000000       0.00000000       5.76484848       0.00000000       0.00000000       0.02295937
2
Properties=species:S:1:pos:R:3:forces:R:3 energy=-3.7758096580791185 pbc="F F F"
P        0.00000000       0.00000000       0.00000000       0.00000000       0.00000000      -0.02464239
P        0.00000000       0.00000000       5.82363636       0.00000000       0.00000000       0.02464239
2
Properties=species:S:1:pos:R:3:forces:R:3 energy=-3.7770185774518437 pbc="F F F"
P        0.00000000       0.00000000       0.00000000       0.00000000       0.00000000      -0.01502031
P        0.00000000       0.00000000       5.88242424       0.00000000       0.00000000       0.01502031
2
Properties=species:S:1:pos:R:3:forces:R:3 energy=-3.7775138669137847 pbc="F F F"
P        0.00000000       0.00000000       0.00000000       0.00000000       0.00000000      -0.00222334
P        0.00000000       0.00000000       5.94121212       0.00000000       0.00000000       0.00222334
2
Properties=species:S:1:pos:R:3:forces:R:3 energy=-3.777435264858744 pbc="F F F"
P        0.00000000       0.00000000       0.00000000       0.00000000       0.00000000       0.00307396
P        0.00000000       0.00000000       6.00000000       0.00000000       0.00000000      -0.00307396
