2
Properties=species:S:1:pos:R:3:forces:R:3 energy=19517.394752697375 pbc="F F F"
Pa       0.00000000       0.00000000       0.00000000       0.00000000       0.00000000 -351394.90625000
Pa       0.00000000       0.00000000       0.18000000       0.00000000       0.00000000  351394.90625000
2
Properties=species:S:1:pos:R:3:forces:R:3 energy=7358.959205822375 pbc="F F F"
Pa       0.00000000       0.00000000       0.00000000       0.00000000       0.00000000 -113373.60937500
Pa       0.00000000       0.00000000       0.23878788       0.00000000       0.00000000  113373.60937500
2
Properties=species:S:1:pos:R:3:forces:R:3 energy=3135.556862072375 pbc="F F F"
Pa       0.00000000       0.00000000       0.00000000       0.00000000       0.00000000  -42977.52734375
Pa       0.00000000       0.00000000       0.29757576       0.00000000       0.00000000   42977.52734375
2
Properties=species:S:1:pos:R:3:forces:R:3 energy=1458.7430193116093 pbc="F F F"
Pa       0.00000000       0.00000000       0.00000000       0.00000000       0.00000000  -18035.08203125
Pa       0.00000000       0.00000000       0.35636364       0.00000000       0.00000000   18035.08203125
2
Properties=species:S:1:pos:R:3:forces:R:3 energy=730.748085229578 pbc="F F F"
Pa       0.00000000       0.00000000       0.00000000       0.00000000       0.00000000   -8162.19873047
Pa       0.00000000       0.00000000       0.41515152       0.00000000       0.00000000    8162.19873047
2
Properties=species:S:1:pos:R:3:forces:R:3 energy=391.809303503968 pbc="F F F"
Pa       0.00000000       0.00000000       0.00000000       0.00000000       0.00000000   -3934.58056641
Pa       0.00000000       0.00000000       0.47393939       0.00000000       0.00000000    3934.58056641
2
Properties=species:S:1:pos:R:3:forces:R:3 energy=224.2835009043346 pbc="F F F"
Pa       0.00000000       0.00000000       0.00000000       0.00000000       0.00000000   -2004.63623047
Pa       0.00000000       0.00000000       0.53272727       0.00000000       0.00000000    2004.63623047
2
Properties=species:S:1:pos:R:3:forces:R:3 energy=137.00223567088813 pbc="F F F"
Pa       0.00000000       0.00000000       0.00000000       0.00000000       0.00000000   -1072.56726074
Pa       0.00000000       0.00000000       0.59151515       0.00000000       0.00000000    1072.56726074
2
Properties=species:S:1:pos:R:3:forces:R:3 energy=89.36743193692932 pbc="F F F"
Pa       0.00000000       0.00000000       0.00000000       0.00000000       0.00000000    -599.13873291
Pa       0.00000000       0.00000000       0.65030303       0.00000000       0.00000000     599.13873291
2
Properties=species:S:1:pos:R:3:forces:R:3 energy=62.281174065715454 pbc="F F F"
Pa       0.00000000       0.00000000       0.00000000       0.00000000       0.00000000    -347.85275269
Pa       0.00000000       0.00000000       0.70909091       0.00000000       0.00000000     347.85275269
2
Properties=species:S:1:pos:R:3:forces:R:3 energy=46.28765915243732 pbc="F F F"
Pa       0.00000000       0.00000000       0.00000000       0.00000000       0.00000000    -209.58499146
Pa       0.00000000       0.00000000       0.76787879       0.00000000       0.00000000     209.58499146
2
Properties=species:S:1:pos:R:3:forces:R:3 energy=36.47560942609884 pbc="F F F"
Pa       0.00000000       0.00000000       0.00000000       0.00000000       0.00000000    -131.49575806
Pa       0.00000000       0.00000000       0.82666667       0.00000000       0.00000000     131.49575806
2
Properties=species:S:1:pos:R:3:forces:R:3 energy=30.18147740884473 pbc="F F F"
Pa       0.00000000       0.00000000       0.00000000       0.00000000       0.00000000     -86.73803711
Pa       0.00000000       0.00000000       0.88545455       0.00000000       0.00000000      86.73803711
2
Properties=species:S:1:pos:R:3:forces:R:3 energy=25.908284315566792 pbc="F F F"
Pa       0.00000000       0.00000000       0.00000000       0.00000000       0.00000000     -61.01480103
Pa       0.00000000       0.00000000       0.94424242       0.00000000       0.00000000      61.01480103
2
Properties=species:S:1:pos:R:3:forces:R:3 energy=22.79111247983709 pbc="F F F"
Pa       0.00000000       0.00000000       0.00000000       0.00000000       0.00000000     -46.44478607
Pa       0.00000000       0.00000000       1.00303030       0.00000000       0.00000000      46.44478607
2
Properties=species:S:1:pos:R:3:forces:R:3 energy=20.31920825739254 pbc="F F F"
Pa       0.00000000       0.00000000       0.00000000       0.00000000       0.00000000     -38.47140884
Pa       0.00000000       0.00000000       1.06181818       0.00000000       0.00000000      38.47140884
2
Properties=species:S:1:pos:R:3:forces:R:3 energy=18.197016571500914 pbc="F F F"
Pa       0.00000000       0.00000000       0.00000000       0.00000000       0.00000000     -34.14901352
Pa       0.00000000       0.00000000       1.12060606       0.00000000       0.00000000      34.14901352
2
Properties=species:S:1:pos:R:3:forces:R:3 energy=16.268173044600683 pbc="F F F"
Pa       0.00000000       0.00000000       0.00000000       0.00000000       0.00000000     -31.68090630
Pa       0.00000000       0.00000000       1.17939394       0.00000000       0.00000000      31.68090630
2
Properties=species:S:1:pos:R:3:forces:R:3 energy=14.463899689352102 pbc="F F F"
Pa       0.00000000       0.00000000       0.00000000       0.00000000       0.00000000     -29.63785934
Pa       0.00000000       0.00000000       1.23818182       0.00000000       0.00000000      29.63785934
2
Properties=species:S:1:pos:R:3:forces:R:3 energy=12.778064417914546 pbc="F F F"
Pa       0.00000000       0.00000000       0.00000000       0.00000000       0.00000000     -28.03162956
Pa       0.00000000       0.00000000       1.29696970       0.00000000       0.00000000      28.03162956
2
Properties=species:S:1:pos:R:3:forces:R:3 energy=11.108535475420139 pbc="F F F"
Pa       0.00000000       0.00000000       0.00000000       0.00000000       0.00000000     -29.26025200
Pa       0.00000000       0.00000000       1.35575758       0.00000000       0.00000000      29.26025200
2
Properties=species:S:1:pos:R:3:forces:R:3 energy=9.310178024725616 pbc="F F F"
Pa       0.00000000       0.00000000       0.00000000       0.00000000       0.00000000     -31.87431908
Pa       0.00000000       0.00000000       1.41454545       0.00000000       0.00000000      31.87431908
2
Properties=species:S:1:pos:R:3:forces:R:3 energy=7.382051844325308 pbc="F F F"
Pa       0.00000000       0.00000000       0.00000000       0.00000000       0.00000000     -33.52310562
Pa       0.00000000       0.00000000       1.47333333       0.00000000       0.00000000      33.52310562
2
Properties=species:S:1:pos:R:3:forces:R:3 energy=5.38497092672683 pbc="F F F"
Pa       0.00000000       0.00000000       0.00000000       0.00000000       0.00000000     -34.33639526
Pa       0.00000000       0.00000000       1.53212121       0.00000000       0.00000000      34.33639526
2
Properties=species:S:1:pos:R:3:forces:R:3 energy=3.352766518180423 pbc="F F F"
Pa       0.00000000       0.00000000       0.00000000       0.00000000       0.00000000     -34.72019958
Pa       0.00000000       0.00000000       1.59090909       0.00000000       0.00000000      34.72019958
2
Properties=species:S:1:pos:R:3:forces:R:3 energy=1.3179271421839784 pbc="F F F"
Pa       0.00000000       0.00000000       0.00000000       0.00000000       0.00000000     -34.30921555
Pa       0.00000000       0.00000000       1.64969697       0.00000000       0.00000000      34.30921555
2
Properties=species:S:1:pos:R:3:forces:R:3 energy=-0.648597745853548 pbc="F F F"
Pa       0.00000000       0.00000000       0.00000000       0.00000000       0.00000000     -32.26221848
Pa       0.00000000       0.00000000       1.70848485       0.00000000       0.00000000      32.26221848
2
Properties=species:S:1:pos:R:3:forces:R:3 energy=-2.4405700548553573 pbc="F F F"
Pa       0.00000000       0.00000000       0.00000000       0.00000000       0.00000000     -28.48541069
Pa       0.00000000       0.00000000       1.76727273       0.00000000       0.00000000      28.48541069
2
Properties=species:S:1:pos:R:3:forces:R:3 energy=-3.9815118160438447 pbc="F F F"
Pa       0.00000000       0.00000000       0.00000000       0.00000000       0.00000000     -23.86439514
Pa       0.00000000       0.00000000       1.82606061       0.00000000       0.00000000      23.86439514
2
Properties=species:S:1:pos:R:3:forces:R:3 energy=-5.2467519620261225 pbc="F F F"
Pa       0.00000000       0.00000000       0.00000000       0.00000000       0.00000000     -19.27612877
Pa       0.00000000       0.00000000       1.88484848       0.00000000       0.00000000      19.27612877
2
Properties=species:S:1:pos:R:3:forces:R:3 energy=-6.269621118720953 pbc="F F F"
Pa       0.00000000       0.00000000       0.00000000       0.00000000       0.00000000     -15.76746273
Pa       0.00000000       0.00000000       1.94363636       0.00000000       0.00000000      15.76746273
2
Properties=species:S:1:pos:R:3:forces:R:3 energy=-7.129661882649903 pbc="F F F"
Pa       0.00000000       0.00000000       0.00000000       0.00000000       0.00000000     -13.70438194
Pa       0.00000000       0.00000000       2.00242424       0.00000000       0.00000000      13.70438194
2
Properties=species:S:1:pos:R:3:forces:R:3 energy=-7.897612214599167 pbc="F F F"
Pa       0.00000000       0.00000000       0.00000000       0.00000000       0.00000000     -12.48234844
Pa       0.00000000       0.00000000       2.06121212       0.00000000       0.00000000      12.48234844
2
Properties=species:S:1:pos:R:3:forces:R:3 energy=-8.595444905531114 pbc="F F F"
Pa       0.00000000       0.00000000       0.00000000       0.00000000       0.00000000     -11.18209171
Pa       0.00000000       0.00000000       2.12000000       0.00000000       0.00000000      11.18209171
2
Properties=species:S:1:pos:R:3:forces:R:3 energy=-9.200093493439455 pbc="F F F"
Pa       0.00000000       0.00000000       0.00000000       0.00000000       0.00000000      -9.27898312
Pa       0.00000000       0.00000000       2.17878788       0.00000000       0.00000000       9.27898312
2
Properties=species:S:1:pos:R:3:forces:R:3 energy=-9.676107540468355 pbc="F F F"
Pa       0.00000000       0.00000000       0.00000000       0.00000000       0.00000000      -6.85937357
Pa       0.00000000       0.00000000       2.23757576       0.00000000       0.00000000       6.85937357
2
Properties=species:S:1:pos:R:3:forces:R:3 energy=-10.004300519868803 pbc="F F F"
Pa       0.00000000       0.00000000       0.00000000       0.00000000       0.00000000      -4.32028818
Pa       0.00000000       0.00000000       2.29636364       0.00000000       0.00000000       4.32028818
2
Properties=species:S:1:pos:R:3:forces:R:3 energy=-10.188781269404787 pbc="F F F"
Pa       0.00000000       0.00000000       0.00000000       0.00000000       0.00000000      -2.01521301
Pa       0.00000000       0.00000000       2.35515152       0.00000000       0.00000000       2.01521301
2
Properties=species:S:1:pos:R:3:forces:R:3 energy=-10.249416098871253 pbc="F F F"
Pa       0.00000000       0.00000000       0.00000000       0.00000000       0.00000000      -0.12247001
Pa       0.00000000       0.00000000       2.41393939       0.00000000       0.00000000       0.12247001
2
Properties=species:S:1:pos:R:3:forces:R:3 energy=-10.211983195835701 pbc="F F F"
Pa       0.00000000       0.00000000       0.00000000       0.00000000       0.00000000       1.32315171
Pa       0.00000000       0.00000000       2.47272727       0.00000000       0.00000000      -1.32315171
2
Properties=species:S:1:pos:R:3:forces:R:3 energy=-10.101926784456852 pbc="F F F"
Pa       0.00000000       0.00000000       0.00000000       0.00000000       0.00000000       2.35685349
Pa       0.00000000       0.00000000       2.53151515       0.00000000       0.00000000      -2.35685349
2
Properties=species:S:1:pos:R:3:forces:R:3 energy=-9.941822373193233 pbc="F F F"
Pa       0.00000000       0.00000000       0.00000000       0.00000000       0.00000000       3.03639197
Pa       0.00000000       0.00000000       2.59030303       0.00000000       0.00000000      -3.03639197
2
Properties=species:S:1:pos:R:3:forces:R:3 energy=-9.750534736409522 pbc="F F F"
Pa       0.00000000       0.00000000       0.00000000       0.00000000       0.00000000       3.42983985
Pa       0.00000000       0.00000000       2.64909091       0.00000000       0.00000000      -3.42983985
2
Properties=species:S:1:pos:R:3:forces:R:3 energy=-9.542636020988077 pbc="F F F"
Pa       0.00000000       0.00000000       0.00000000       0.00000000       0.00000000       3.61526394
Pa       0.00000000       0.00000000       2.70787879       0.00000000       0.00000000      -3.61526394
2
Properties=species:S:1:pos:R:3:forces:R:3 energy=-9.327941433649737 pbc="F F F"
Pa       0.00000000       0.00000000       0.00000000       0.00000000       0.00000000       3.67419672
Pa       0.00000000       0.00000000       2.76666667       0.00000000       0.00000000      -3.67419672
2
Properties=species:S:1:pos:R:3:forces:R:3 energy=-9.111697891070424 pbc="F F F"
Pa       0.00000000       0.00000000       0.00000000       0.00000000       0.00000000       3.67828393
Pa       0.00000000       0.00000000       2.82545455       0.00000000       0.00000000      -3.67828393
2
Properties=species:S:1:pos:R:3:forces:R:3 energy=-8.895538913968926 pbc="F F F"
Pa       0.00000000       0.00000000       0.00000000       0.00000000       0.00000000       3.67760158
Pa       0.00000000       0.00000000       2.88424242       0.00000000       0.00000000      -3.67760158
2
Properties=species:S:1:pos:R:3:forces:R:3 energy=-8.678898583993341 pbc="F F F"
Pa       0.00000000       0.00000000       0.00000000       0.00000000       0.00000000       3.69670844
Pa       0.00000000       0.00000000       2.94303030       0.00000000       0.00000000      -3.69670844
2
Properties=species:S:1:pos:R:3:forces:R:3 energy=-8.460446186675162 pbc="F F F"
Pa       0.00000000       0.00000000       0.00000000       0.00000000       0.00000000       3.73830509
Pa       0.00000000       0.00000000       3.00181818       0.00000000       0.00000000      -3.73830509
2
Properties=species:S:1:pos:R:3:forces:R:3 energy=-8.239152254588268 pbc="F F F"
Pa       0.00000000       0.00000000       0.00000000       0.00000000       0.00000000       3.79052782
Pa       0.00000000       0.00000000       3.06060606       0.00000000       0.00000000      -3.79052782
2
Properties=species:S:1:pos:R:3:forces:R:3 energy=-8.014909797467048 pbc="F F F"
Pa       0.00000000       0.00000000       0.00000000       0.00000000       0.00000000       3.83588552
Pa       0.00000000       0.00000000       3.11939394       0.00000000       0.00000000      -3.83588552
2
Properties=species:S:1:pos:R:3:forces:R:3 energy=-7.788532196788949 pbc="F F F"
Pa       0.00000000       0.00000000       0.00000000       0.00000000       0.00000000       3.86193657
Pa       0.00000000       0.00000000       3.17818182       0.00000000       0.00000000      -3.86193657
2
Properties=species:S:1:pos:R:3:forces:R:3 energy=-7.56121305864403 pbc="F F F"
Pa       0.00000000       0.00000000       0.00000000       0.00000000       0.00000000       3.86941934
Pa       0.00000000       0.00000000       3.23696970       0.00000000       0.00000000      -3.86941934
2
Properties=species:S:1:pos:R:3:forces:R:3 energy=-7.33371393664315 pbc="F F F"
Pa       0.00000000       0.00000000       0.00000000       0.00000000       0.00000000       3.87019634
Pa       0.00000000       0.00000000       3.29575758       0.00000000       0.00000000      -3.87019634
2
Properties=species:S:1:pos:R:3:forces:R:3 energy=-7.106090213908449 pbc="F F F"
Pa       0.00000000       0.00000000       0.00000000       0.00000000       0.00000000       3.87449193
Pa       0.00000000       0.00000000       3.35454545       0.00000000       0.00000000      -3.87449193
2
Properties=species:S:1:pos:R:3:forces:R:3 energy=-6.878174636622531 pbc="F F F"
Pa       0.00000000       0.00000000       0.00000000       0.00000000       0.00000000       3.87780166
Pa       0.00000000       0.00000000       3.41333333       0.00000000       0.00000000      -3.87780166
2
Properties=species:S:1:pos:R:3:forces:R:3 energy=-6.650594602428049 pbc="F F F"
Pa       0.00000000       0.00000000       0.00000000       0.00000000       0.00000000       3.85828853
Pa       0.00000000       0.00000000       3.47212121       0.00000000       0.00000000      -3.85828853
2
Properties=species:S:1:pos:R:3:forces:R:3 energy=-6.4255660009252855 pbc="F F F"
Pa       0.00000000       0.00000000       0.00000000       0.00000000       0.00000000       3.78636003
Pa       0.00000000       0.00000000       3.53090909       0.00000000       0.00000000      -3.78636003
2
Properties=species:S:1:pos:R:3:forces:R:3 energy=-6.206914574645771 pbc="F F F"
Pa       0.00000000       0.00000000       0.00000000       0.00000000       0.00000000       3.63828826
Pa       0.00000000       0.00000000       3.58969697       0.00000000       0.00000000      -3.63828826
2
Properties=species:S:1:pos:R:3:forces:R:3 energy=-5.999475867837937 pbc="F F F"
Pa       0.00000000       0.00000000       0.00000000       0.00000000       0.00000000       3.40470457
Pa       0.00000000       0.00000000       3.64848485       0.00000000       0.00000000      -3.40470457
2
Properties=species:S:1:pos:R:3:forces:R:3 energy=-5.808168921938054 pbc="F F F"
Pa       0.00000000       0.00000000       0.00000000       0.00000000       0.00000000       3.09174204
Pa       0.00000000       0.00000000       3.70727273       0.00000000       0.00000000      -3.09174204
2
Properties=species:S:1:pos:R:3:forces:R:3 energy=-5.637149260721801 pbc="F F F"
Pa       0.00000000       0.00000000       0.00000000       0.00000000       0.00000000       2.71846700
Pa       0.00000000       0.00000000       3.76606061       0.00000000       0.00000000      -2.71846700
2
Properties=species:S:1:pos:R:3:forces:R:3 energy=-5.489180444272329 pbc="F F F"
Pa       0.00000000       0.00000000       0.00000000       0.00000000       0.00000000       2.31272268
Pa       0.00000000       0.00000000       3.82484848       0.00000000       0.00000000      -2.31272268
2
Properties=species:S:1:pos:R:3:forces:R:3 energy=-5.365247906909852 pbc="F F F"
Pa       0.00000000       0.00000000       0.00000000       0.00000000       0.00000000       1.90594590
Pa       0.00000000       0.00000000       3.88363636       0.00000000       0.00000000      -1.90594590
2
Properties=species:S:1:pos:R:3:forces:R:3 energy=-5.264514121827483 pbc="F F F"
Pa       0.00000000       0.00000000       0.00000000       0.00000000       0.00000000       1.52823937
Pa       0.00000000       0.00000000       3.94242424       0.00000000       0.00000000      -1.52823937
2
Properties=species:S:1:pos:R:3:forces:R:3 energy=-5.184507918114333 pbc="F F F"
Pa       0.00000000       0.00000000       0.00000000       0.00000000       0.00000000       1.20423555
Pa       0.00000000       0.00000000       4.00121212       0.00000000       0.00000000      -1.20423555
2
Properties=species:S:1:pos:R:3:forces:R:3 energy=-5.121554651228648 pbc="F F F"
Pa       0.00000000       0.00000000       0.00000000       0.00000000       0.00000000       0.94982183
Pa       0.00000000       0.00000000       4.06000000       0.00000000       0.00000000      -0.94982183
2
Properties=species:S:1:pos:R:3:forces:R:3 energy=-5.071355522131165 pbc="F F F"
Pa       0.00000000       0.00000000       0.00000000       0.00000000       0.00000000       0.77041072
Pa       0.00000000       0.00000000       4.11878788       0.00000000       0.00000000      -0.77041072
2
Properties=species:S:1:pos:R:3:forces:R:3 energy=-5.029578988409814 pbc="F F F"
Pa       0.00000000       0.00000000       0.00000000       0.00000000       0.00000000       0.66195488
Pa       0.00000000       0.00000000       4.17757576       0.00000000       0.00000000      -0.66195488
2
Properties=species:S:1:pos:R:3:forces:R:3 energy=-4.992333246547052 pbc="F F F"
Pa       0.00000000       0.00000000       0.00000000       0.00000000       0.00000000       0.61421031
Pa       0.00000000       0.00000000       4.23636364       0.00000000       0.00000000      -0.61421031
2
Properties=species:S:1:pos:R:3:forces:R:3 energy=-4.956431937922933 pbc="F F F"
Pa       0.00000000       0.00000000       0.00000000       0.00000000       0.00000000       0.61385262
Pa       0.00000000       0.00000000       4.29515152       0.00000000       0.00000000      -0.61385262
2
Properties=species:S:1:pos:R:3:forces:R:3 energy=-4.919517687652956 pbc="F F F"
Pa       0.00000000       0.00000000       0.00000000       0.00000000       0.00000000       0.64623088
Pa       0.00000000       0.00000000       4.35393939       0.00000000       0.00000000      -0.64623088
2
Properties=species:S:1:pos:R:3:forces:R:3 energy=-4.880106399758615 pbc="F F F"
Pa       0.00000000       0.00000000       0.00000000       0.00000000       0.00000000       0.69625193
Pa       0.00000000       0.00000000       4.41272727       0.00000000       0.00000000      -0.69625193
2
Properties=species:S:1:pos:R:3:forces:R:3 energy=-4.837593627112856 pbc="F F F"
Pa       0.00000000       0.00000000       0.00000000       0.00000000       0.00000000       0.74948019
Pa       0.00000000       0.00000000       4.47151515       0.00000000       0.00000000      -0.74948019
2
Properties=species:S:1:pos:R:3:forces:R:3 energy=-4.79216346386464 pbc="F F F"
Pa       0.00000000       0.00000000       0.00000000       0.00000000       0.00000000       0.79372495
Pa       0.00000000       0.00000000       4.53030303       0.00000000       0.00000000      -0.79372495
2
Properties=species:S:1:pos:R:3:forces:R:3 energy=-4.7446164325674065 pbc="F F F"
Pa       0.00000000       0.00000000       0.00000000       0.00000000       0.00000000       0.82049465
Pa       0.00000000       0.00000000       4.58909091       0.00000000       0.00000000      -0.82049465
2
Properties=species:S:1:pos:R:3:forces:R:3 energy=-4.69611785987936 pbc="F F F"
Pa       0.00000000       0.00000000       0.00000000       0.00000000       0.00000000       0.82581156
Pa       0.00000000       0.00000000       4.64787879       0.00000000       0.00000000      -0.82581156
2
Properties=species:S:1:pos:R:3:forces:R:3 energy=-4.647934046230811 pbc="F F F"
Pa       0.00000000       0.00000000       0.00000000       0.00000000       0.00000000       0.81014591
Pa       0.00000000       0.00000000       4.70666667       0.00000000       0.00000000      -0.81014591
2
Properties=species:S:1:pos:R:3:forces:R:3 energy=-4.6011945331584965 pbc="F F F"
Pa       0.00000000       0.00000000       0.00000000       0.00000000       0.00000000       0.77770829
Pa       0.00000000       0.00000000       4.76545455       0.00000000       0.00000000      -0.77770829
2
Properties=species:S:1:pos:R:3:forces:R:3 energy=-4.556692232508556 pbc="F F F"
Pa       0.00000000       0.00000000       0.00000000       0.00000000       0.00000000       0.73510224
Pa       0.00000000       0.00000000       4.82424242       0.00000000       0.00000000      -0.73510224
2
Properties=species:S:1:pos:R:3:forces:R:3 energy=-4.5148224799793075 pbc="F F F"
Pa       0.00000000       0.00000000       0.00000000       0.00000000       0.00000000       0.68954933
Pa       0.00000000       0.00000000       4.88303030       0.00000000       0.00000000      -0.68954933
2
Properties=species:S:1:pos:R:3:forces:R:3 energy=-4.475562423417486 pbc="F F F"
Pa       0.00000000       0.00000000       0.00000000       0.00000000       0.00000000       0.64679515
Pa       0.00000000       0.00000000       4.94181818       0.00000000       0.00000000      -0.64679515
2
Properties=species:S:1:pos:R:3:forces:R:3 energy=-4.43866712326751 pbc="F F F"
Pa       0.00000000       0.00000000       0.00000000       0.00000000       0.00000000       0.60930085
Pa       0.00000000       0.00000000       5.00060606       0.00000000       0.00000000      -0.60930085
2
Properties=species:S:1:pos:R:3:forces:R:3 energy=-4.403850261183154 pbc="F F F"
Pa       0.00000000       0.00000000       0.00000000       0.00000000       0.00000000       0.57534140
Pa       0.00000000       0.00000000       5.05939394       0.00000000       0.00000000      -0.57534140
2
Properties=species:S:1:pos:R:3:forces:R:3 energy=-4.371054392654646 pbc="F F F"
Pa       0.00000000       0.00000000       0.00000000       0.00000000       0.00000000       0.53961074
Pa       0.00000000       0.00000000       5.11818182       0.00000000       0.00000000      -0.53961074
2
Properties=species:S:1:pos:R:3:forces:R:3 energy=-4.340578758374005 pbc="F F F"
Pa       0.00000000       0.00000000       0.00000000       0.00000000       0.00000000       0.49516520
Pa       0.00000000       0.00000000       5.17696970       0.00000000       0.00000000      -0.49516520
2
Properties=species:S:1:pos:R:3:forces:R:3 energy=-4.313122243928787 pbc="F F F"
Pa       0.00000000       0.00000000       0.00000000       0.00000000       0.00000000       0.43631095
Pa       0.00000000       0.00000000       5.23575758       0.00000000       0.00000000      -0.43631095
2
Properties=species:S:1:pos:R:3:forces:R:3 energy=-4.289550442514396 pbc="F F F"
Pa       0.00000000       0.00000000       0.00000000       0.00000000       0.00000000       0.36425948
Pa       0.00000000       0.00000000       5.29454545       0.00000000       0.00000000      -0.36425948
2
Properties=species:S:1:pos:R:3:forces:R:3 energy=-4.2701977173899435 pbc="F F F"
Pa       0.00000000       0.00000000       0.00000000       0.00000000       0.00000000       0.29792923
Pa       0.00000000       0.00000000       5.35333333       0.00000000       0.00000000      -0.29792923
2
Properties=species:S:1:pos:R:3:forces:R:3 energy=-4.253675376743631 pbc="F F F"
Pa       0.00000000       0.00000000       0.00000000       0.00000000       0.00000000       0.27380362
Pa       0.00000000       0.00000000       5.41212121       0.00000000       0.00000000      -0.27380362
2
Properties=species:S:1:pos:R:3:forces:R:3 energy=-4.237043742214779 pbc="F F F"
Pa       0.00000000       0.00000000       0.00000000       0.00000000       0.00000000       0.29552901
Pa       0.00000000       0.00000000       5.47090909       0.00000000       0.00000000      -0.29552901
2
Properties=species:S:1:pos:R:3:forces:R:3 energy=-4.219286848594362 pbc="F F F"
Pa       0.00000000       0.00000000       0.00000000       0.00000000       0.00000000       0.30067629
Pa       0.00000000       0.00000000       5.52969697       0.00000000       0.00000000      -0.30067629
2
Properties=species:S:1:pos:R:3:forces:R:3 energy=-4.2025454560171 pbc="F F F"
Pa       0.00000000       0.00000000       0.00000000       0.00000000       0.00000000       0.26541433
Pa       0.00000000       0.00000000       5.58848485       0.00000000       0.00000000      -0.26541433
2
Properties=species:S:1:pos:R:3:forces:R:3 energy=-4.187814885735982 pbc="F F F"
Pa       0.00000000       0.00000000       0.00000000       0.00000000       0.00000000       0.24379966
Pa       0.00000000       0.00000000       5.64727273       0.00000000       0.00000000      -0.24379966
2
Properties=species:S:1:pos:R:3:forces:R:3 energy=-4.172674735055608 pbc="F F F"
Pa       0.00000000       0.00000000       0.00000000       0.00000000       0.00000000       0.27993137
Pa       0.00000000       0.00000000       5.70606061       0.00000000       0.00000000      -0.27993137
2
Properties=species:S:1:pos:R:3:forces:R:3 energy=-4.154778384327219 pbc="F F F"
Pa       0.00000000       0.00000000       0.00000000       0.00000000       0.00000000       0.31834051
Pa       0.00000000       0.00000000       5.76484848       0.00000000       0.00000000      -0.31834051
2
Properties=species:S:1:pos:R:3:forces:R:3 energy=-4.137072317098204 pbc="F F F"
Pa       0.00000000       0.00000000       0.00000000       0.00000000       0.00000000       0.26842618
Pa       0.00000000       0.00000000       5.82363636       0.00000000       0.00000000      -0.26842618
2
Properties=species:S:1:pos:R:3:forces:R:3 energy=-4.124445265024173 pbc="F F F"
Pa       0.00000000       0.00000000       0.00000000       0.00000000       0.00000000       0.15998474
Pa       0.00000000       0.00000000       5.88242424       0.00000000       0.00000000      -0.15998474
2
Properties=species:S:1:pos:R:3:forces:R:3 energy=-4.117916160124854 pbc="F F F"
Pa       0.00000000       0.00000000       0.00000000       0.00000000       0.00000000       0.06860857
Pa       0.00000000       0.00000000       5.94121212       0.00000000       0.00000000      -0.06860857
2
Properties=species:S:1:pos:R:3:forces:R:3 energy=-4.1152347310237065 pbc="F F F"
Pa       0.00000000       0.00000000       0.00000000       0.00000000       0.00000000       0.03397926
Pa       0.00000000       0.00000000       6.00000000       0.00000000       0.00000000      -0.03397926
