2
Properties=species:S:1:pos:R:3:forces:R:3 energy=54733.4962010699 pbc="F F F"
Pr       0.00000000       0.00000000       0.00000000       0.00000000       0.00000000 -1346148.75000000
Pr       0.00000000       0.00000000       0.10000000       0.00000000       0.00000000 1346148.75000000
2
Properties=species:S:1:pos:R:3:forces:R:3 energy=15577.184677632402 pbc="F F F"
Pr       0.00000000       0.00000000       0.00000000       0.00000000       0.00000000 -286114.68750000
Pr       0.00000000       0.00000000       0.15959596       0.00000000       0.00000000  286114.68750000
2
Properties=species:S:1:pos:R:3:forces:R:3 energy=5779.625595601152 pbc="F F F"
Pr       0.00000000       0.00000000       0.00000000       0.00000000       0.00000000  -87951.85156250
Pr       0.00000000       0.00000000       0.21919192       0.00000000       0.00000000   87951.85156250
2
Properties=species:S:1:pos:R:3:forces:R:3 energy=2476.952744038652 pbc="F F F"
Pr       0.00000000       0.00000000       0.00000000       0.00000000       0.00000000  -33076.00781250
Pr       0.00000000       0.00000000       0.27878788       0.00000000       0.00000000   33076.00781250
2
Properties=species:S:1:pos:R:3:forces:R:3 energy=1163.957993074761 pbc="F F F"
Pr       0.00000000       0.00000000       0.00000000       0.00000000       0.00000000  -14025.65527344
Pr       0.00000000       0.00000000       0.33838384       0.00000000       0.00000000   14025.65527344
2
Properties=species:S:1:pos:R:3:forces:R:3 energy=586.2387547935108 pbc="F F F"
Pr       0.00000000       0.00000000       0.00000000       0.00000000       0.00000000   -6444.82568359
Pr       0.00000000       0.00000000       0.39797980       0.00000000       0.00000000    6444.82568359
2
Properties=species:S:1:pos:R:3:forces:R:3 energy=313.2596593345265 pbc="F F F"
Pr       0.00000000       0.00000000       0.00000000       0.00000000       0.00000000   -3148.44311523
Pr       0.00000000       0.00000000       0.45757576       0.00000000       0.00000000    3148.44311523
2
Properties=species:S:1:pos:R:3:forces:R:3 energy=176.74859672512744 pbc="F F F"
Pr       0.00000000       0.00000000       0.00000000       0.00000000       0.00000000   -1619.24072266
Pr       0.00000000       0.00000000       0.51717172       0.00000000       0.00000000    1619.24072266
2
Properties=species:S:1:pos:R:3:forces:R:3 energy=105.07794245359501 pbc="F F F"
Pr       0.00000000       0.00000000       0.00000000       0.00000000       0.00000000    -871.23596191
Pr       0.00000000       0.00000000       0.57676768       0.00000000       0.00000000     871.23596191
2
Properties=species:S:1:pos:R:3:forces:R:3 energy=65.80044615371826 pbc="F F F"
Pr       0.00000000       0.00000000       0.00000000       0.00000000       0.00000000    -487.82098389
Pr       0.00000000       0.00000000       0.63636364       0.00000000       0.00000000     487.82098389
2
Properties=species:S:1:pos:R:3:forces:R:3 energy=43.45093222217763 pbc="F F F"
Pr       0.00000000       0.00000000       0.00000000       0.00000000       0.00000000    -282.75659180
Pr       0.00000000       0.00000000       0.69595960       0.00000000       0.00000000     282.75659180
2
Properties=species:S:1:pos:R:3:forces:R:3 energy=30.31478579080907 pbc="F F F"
Pr       0.00000000       0.00000000       0.00000000       0.00000000       0.00000000    -168.84486389
Pr       0.00000000       0.00000000       0.75555556       0.00000000       0.00000000     168.84486389
2
Properties=species:S:1:pos:R:3:forces:R:3 energy=22.372883807562577 pbc="F F F"
Pr       0.00000000       0.00000000       0.00000000       0.00000000       0.00000000    -103.56543732
Pr       0.00000000       0.00000000       0.81515152       0.00000000       0.00000000     103.56543732
2
Properties=species:S:1:pos:R:3:forces:R:3 energy=17.438298477028 pbc="F F F"
Pr       0.00000000       0.00000000       0.00000000       0.00000000       0.00000000     -65.40426636
Pr       0.00000000       0.00000000       0.87474747       0.00000000       0.00000000      65.40426636
2
Properties=species:S:1:pos:R:3:forces:R:3 energy=14.265455852392927 pbc="F F F"
Pr       0.00000000       0.00000000       0.00000000       0.00000000       0.00000000     -43.09992218
Pr       0.00000000       0.00000000       0.93434343       0.00000000       0.00000000      43.09992218
2
Properties=species:S:1:pos:R:3:forces:R:3 energy=12.109110966470253 pbc="F F F"
Pr       0.00000000       0.00000000       0.00000000       0.00000000       0.00000000     -30.54518890
Pr       0.00000000       0.00000000       0.99393939       0.00000000       0.00000000      30.54518890
2
Properties=species:S:1:pos:R:3:forces:R:3 energy=10.501480883030679 pbc="F F F"
Pr       0.00000000       0.00000000       0.00000000       0.00000000       0.00000000     -24.23331833
Pr       0.00000000       0.00000000       1.05353535       0.00000000       0.00000000      24.23331833
2
Properties=species:S:1:pos:R:3:forces:R:3 energy=9.142726658326543 pbc="F F F"
Pr       0.00000000       0.00000000       0.00000000       0.00000000       0.00000000     -21.85577011
Pr       0.00000000       0.00000000       1.11313131       0.00000000       0.00000000      21.85577011
2
Properties=species:S:1:pos:R:3:forces:R:3 energy=7.856836265844568 pbc="F F F"
Pr       0.00000000       0.00000000       0.00000000       0.00000000       0.00000000     -21.47774124
Pr       0.00000000       0.00000000       1.17272727       0.00000000       0.00000000      21.47774124
2
Properties=species:S:1:pos:R:3:forces:R:3 energy=6.5739789124848445 pbc="F F F"
Pr       0.00000000       0.00000000       0.00000000       0.00000000       0.00000000     -21.60427475
Pr       0.00000000       0.00000000       1.23232323       0.00000000       0.00000000      21.60427475
2
Properties=species:S:1:pos:R:3:forces:R:3 energy=5.273782283528035 pbc="F F F"
Pr       0.00000000       0.00000000       0.00000000       0.00000000       0.00000000     -22.12845612
Pr       0.00000000       0.00000000       1.29191919       0.00000000       0.00000000      22.12845612
2
Properties=species:S:1:pos:R:3:forces:R:3 energy=3.9316416576385884 pbc="F F F"
Pr       0.00000000       0.00000000       0.00000000       0.00000000       0.00000000     -22.83763123
Pr       0.00000000       0.00000000       1.35151515       0.00000000       0.00000000      22.83763123
2
Properties=species:S:1:pos:R:3:forces:R:3 energy=2.5754373406610824 pbc="F F F"
Pr       0.00000000       0.00000000       0.00000000       0.00000000       0.00000000     -22.38664246
Pr       0.00000000       0.00000000       1.41111111       0.00000000       0.00000000      22.38664246
2
Properties=species:S:1:pos:R:3:forces:R:3 energy=1.3006165480970242 pbc="F F F"
Pr       0.00000000       0.00000000       0.00000000       0.00000000       0.00000000     -20.10407066
Pr       0.00000000       0.00000000       1.47070707       0.00000000       0.00000000      20.10407066
2
Properties=species:S:1:pos:R:3:forces:R:3 energy=0.20345281622922223 pbc="F F F"
Pr       0.00000000       0.00000000       0.00000000       0.00000000       0.00000000     -16.63976288
Pr       0.00000000       0.00000000       1.53030303       0.00000000       0.00000000      16.63976288
2
Properties=species:S:1:pos:R:3:forces:R:3 energy=-0.6919824482897429 pbc="F F F"
Pr       0.00000000       0.00000000       0.00000000       0.00000000       0.00000000     -13.62428856
Pr       0.00000000       0.00000000       1.58989899       0.00000000       0.00000000      13.62428856
2
Properties=species:S:1:pos:R:3:forces:R:3 energy=-1.4525280477829001 pbc="F F F"
Pr       0.00000000       0.00000000       0.00000000       0.00000000       0.00000000     -12.15010643
Pr       0.00000000       0.00000000       1.64949495       0.00000000       0.00000000      12.15010643
2
Properties=species:S:1:pos:R:3:forces:R:3 energy=-2.157339914521669 pbc="F F F"
Pr       0.00000000       0.00000000       0.00000000       0.00000000       0.00000000     -11.52146435
Pr       0.00000000       0.00000000       1.70909091       0.00000000       0.00000000      11.52146435
2
Properties=species:S:1:pos:R:3:forces:R:3 energy=-2.8195909237553747 pbc="F F F"
Pr       0.00000000       0.00000000       0.00000000       0.00000000       0.00000000     -10.64621639
Pr       0.00000000       0.00000000       1.76868687       0.00000000       0.00000000      10.64621639
2
Properties=species:S:1:pos:R:3:forces:R:3 energy=-3.425487051807881 pbc="F F F"
Pr       0.00000000       0.00000000       0.00000000       0.00000000       0.00000000      -9.72234726
Pr       0.00000000       0.00000000       1.82828283       0.00000000       0.00000000       9.72234726
2
Properties=species:S:1:pos:R:3:forces:R:3 energy=-3.9829356489239007 pbc="F F F"
Pr       0.00000000       0.00000000       0.00000000       0.00000000       0.00000000      -9.00798988
Pr       0.00000000       0.00000000       1.88787879       0.00000000       0.00000000       9.00798988
2
Properties=species:S:1:pos:R:3:forces:R:3 energy=-4.499399551746392 pbc="F F F"
Pr       0.00000000       0.00000000       0.00000000       0.00000000       0.00000000      -8.30952358
Pr       0.00000000       0.00000000       1.94747475       0.00000000       0.00000000       8.30952358
2
Properties=species:S:1:pos:R:3:forces:R:3 energy=-4.970599720316142 pbc="F F F"
Pr       0.00000000       0.00000000       0.00000000       0.00000000       0.00000000      -7.47617626
Pr       0.00000000       0.00000000       2.00707071       0.00000000       0.00000000       7.47617626
2
Properties=species:S:1:pos:R:3:forces:R:3 energy=-5.387234776620005 pbc="F F F"
Pr       0.00000000       0.00000000       0.00000000       0.00000000       0.00000000      -6.48091269
Pr       0.00000000       0.00000000       2.06666667       0.00000000       0.00000000       6.48091269
2
Properties=species:S:1:pos:R:3:forces:R:3 energy=-5.740737808916743 pbc="F F F"
Pr       0.00000000       0.00000000       0.00000000       0.00000000       0.00000000      -5.36977530
Pr       0.00000000       0.00000000       2.12626263       0.00000000       0.00000000       5.36977530
2
Properties=species:S:1:pos:R:3:forces:R:3 energy=-6.026849677694899 pbc="F F F"
Pr       0.00000000       0.00000000       0.00000000       0.00000000       0.00000000      -4.23857450
Pr       0.00000000       0.00000000       2.18585859       0.00000000       0.00000000       4.23857450
2
Properties=species:S:1:pos:R:3:forces:R:3 energy=-6.247973008667388 pbc="F F F"
Pr       0.00000000       0.00000000       0.00000000       0.00000000       0.00000000      -3.20862341
Pr       0.00000000       0.00000000       2.24545455       0.00000000       0.00000000       3.20862341
2
Properties=species:S:1:pos:R:3:forces:R:3 energy=-6.413195659162554 pbc="F F F"
Pr       0.00000000       0.00000000       0.00000000       0.00000000       0.00000000      -2.37228179
Pr       0.00000000       0.00000000       2.30505051       0.00000000       0.00000000       2.37228179
2
Properties=species:S:1:pos:R:3:forces:R:3 energy=-6.534947097956987 pbc="F F F"
Pr       0.00000000       0.00000000       0.00000000       0.00000000       0.00000000      -1.74593878
Pr       0.00000000       0.00000000       2.36464646       0.00000000       0.00000000       1.74593878
2
Properties=species:S:1:pos:R:3:forces:R:3 energy=-6.624545210383773 pbc="F F F"
Pr       0.00000000       0.00000000       0.00000000       0.00000000       0.00000000      -1.28271043
Pr       0.00000000       0.00000000       2.42424242       0.00000000       0.00000000       1.28271043
2
Properties=species:S:1:pos:R:3:forces:R:3 energy=-6.689861176083621 pbc="F F F"
Pr       0.00000000       0.00000000       0.00000000       0.00000000       0.00000000      -0.92222995
Pr       0.00000000       0.00000000       2.48383838       0.00000000       0.00000000       0.92222995
2
Properties=species:S:1:pos:R:3:forces:R:3 energy=-6.735681966615402 pbc="F F F"
Pr       0.00000000       0.00000000       0.00000000       0.00000000       0.00000000      -0.62374556
Pr       0.00000000       0.00000000       2.54343434       0.00000000       0.00000000       0.62374556
2
Properties=species:S:1:pos:R:3:forces:R:3 energy=-6.765074036372175 pbc="F F F"
Pr       0.00000000       0.00000000       0.00000000       0.00000000       0.00000000      -0.36934960
Pr       0.00000000       0.00000000       2.60303030       0.00000000       0.00000000       0.36934960
2
Properties=species:S:1:pos:R:3:forces:R:3 energy=-6.780470924782596 pbc="F F F"
Pr       0.00000000       0.00000000       0.00000000       0.00000000       0.00000000      -0.15357427
Pr       0.00000000       0.00000000       2.66262626       0.00000000       0.00000000       0.15357427
2
Properties=species:S:1:pos:R:3:forces:R:3 energy=-6.784078243113702 pbc="F F F"
Pr       0.00000000       0.00000000       0.00000000       0.00000000       0.00000000       0.02719035
Pr       0.00000000       0.00000000       2.72222222       0.00000000       0.00000000      -0.02719035
2
Properties=species:S:1:pos:R:3:forces:R:3 energy=-6.777771880073015 pbc="F F F"
Pr       0.00000000       0.00000000       0.00000000       0.00000000       0.00000000       0.18091501
Pr       0.00000000       0.00000000       2.78181818       0.00000000       0.00000000      -0.18091501
2
Properties=species:S:1:pos:R:3:forces:R:3 energy=-6.762793995113519 pbc="F F F"
Pr       0.00000000       0.00000000       0.00000000       0.00000000       0.00000000       0.32061628
Pr       0.00000000       0.00000000       2.84141414       0.00000000       0.00000000      -0.32061628
2
Properties=species:S:1:pos:R:3:forces:R:3 energy=-6.7395416148458205 pbc="F F F"
Pr       0.00000000       0.00000000       0.00000000       0.00000000       0.00000000       0.46097785
Pr       0.00000000       0.00000000       2.90101010       0.00000000       0.00000000      -0.46097785
2
Properties=species:S:1:pos:R:3:forces:R:3 energy=-6.707596348997422 pbc="F F F"
Pr       0.00000000       0.00000000       0.00000000       0.00000000       0.00000000       0.61391026
Pr       0.00000000       0.00000000       2.96060606       0.00000000       0.00000000      -0.61391026
2
Properties=species:S:1:pos:R:3:forces:R:3 energy=-6.665999272027232 pbc="F F F"
Pr       0.00000000       0.00000000       0.00000000       0.00000000       0.00000000       0.78513867
Pr       0.00000000       0.00000000       3.02020202       0.00000000       0.00000000      -0.78513867
2
Properties=species:S:1:pos:R:3:forces:R:3 energy=-6.6136965804709655 pbc="F F F"
Pr       0.00000000       0.00000000       0.00000000       0.00000000       0.00000000       0.97198778
Pr       0.00000000       0.00000000       3.07979798       0.00000000       0.00000000      -0.97198778
2
Properties=species:S:1:pos:R:3:forces:R:3 energy=-6.55006916895458 pbc="F F F"
Pr       0.00000000       0.00000000       0.00000000       0.00000000       0.00000000       1.16250241
Pr       0.00000000       0.00000000       3.13939394       0.00000000       0.00000000      -1.16250241
2
Properties=species:S:1:pos:R:3:forces:R:3 energy=-6.475446183813655 pbc="F F F"
Pr       0.00000000       0.00000000       0.00000000       0.00000000       0.00000000       1.33732092
Pr       0.00000000       0.00000000       3.19898990       0.00000000       0.00000000      -1.33732092
2
Properties=species:S:1:pos:R:3:forces:R:3 energy=-6.391407865374013 pbc="F F F"
Pr       0.00000000       0.00000000       0.00000000       0.00000000       0.00000000       1.47525156
Pr       0.00000000       0.00000000       3.25858586       0.00000000       0.00000000      -1.47525156
2
Properties=species:S:1:pos:R:3:forces:R:3 energy=-6.300652561069729 pbc="F F F"
Pr       0.00000000       0.00000000       0.00000000       0.00000000       0.00000000       1.56101775
Pr       0.00000000       0.00000000       3.31818182       0.00000000       0.00000000      -1.56101775
2
Properties=species:S:1:pos:R:3:forces:R:3 energy=-6.206465840959303 pbc="F F F"
Pr       0.00000000       0.00000000       0.00000000       0.00000000       0.00000000       1.59085548
Pr       0.00000000       0.00000000       3.37777778       0.00000000       0.00000000      -1.59085548
2
Properties=species:S:1:pos:R:3:forces:R:3 energy=-6.111995393134779 pbc="F F F"
Pr       0.00000000       0.00000000       0.00000000       0.00000000       0.00000000       1.57255948
Pr       0.00000000       0.00000000       3.43737374       0.00000000       0.00000000      -1.57255948
2
Properties=species:S:1:pos:R:3:forces:R:3 energy=-6.019697803919218 pbc="F F F"
Pr       0.00000000       0.00000000       0.00000000       0.00000000       0.00000000       1.52064240
Pr       0.00000000       0.00000000       3.49696970       0.00000000       0.00000000      -1.52064240
2
Properties=species:S:1:pos:R:3:forces:R:3 energy=-5.931111017843206 pbc="F F F"
Pr       0.00000000       0.00000000       0.00000000       0.00000000       0.00000000       1.45032716
Pr       0.00000000       0.00000000       3.55656566       0.00000000       0.00000000      -1.45032716
2
Properties=species:S:1:pos:R:3:forces:R:3 energy=-5.846949169554707 pbc="F F F"
Pr       0.00000000       0.00000000       0.00000000       0.00000000       0.00000000       1.37386131
Pr       0.00000000       0.00000000       3.61616162       0.00000000       0.00000000      -1.37386131
2
Properties=species:S:1:pos:R:3:forces:R:3 energy=-5.767310766916059 pbc="F F F"
Pr       0.00000000       0.00000000       0.00000000       0.00000000       0.00000000       1.29966974
Pr       0.00000000       0.00000000       3.67575758       0.00000000       0.00000000      -1.29966974
2
Properties=species:S:1:pos:R:3:forces:R:3 energy=-5.691893525822747 pbc="F F F"
Pr       0.00000000       0.00000000       0.00000000       0.00000000       0.00000000       1.23273242
Pr       0.00000000       0.00000000       3.73535354       0.00000000       0.00000000      -1.23273242
2
Properties=species:S:1:pos:R:3:forces:R:3 energy=-5.620200384526514 pbc="F F F"
Pr       0.00000000       0.00000000       0.00000000       0.00000000       0.00000000       1.17462218
Pr       0.00000000       0.00000000       3.79494949       0.00000000       0.00000000      -1.17462218
2
Properties=species:S:1:pos:R:3:forces:R:3 energy=-5.551751498101952 pbc="F F F"
Pr       0.00000000       0.00000000       0.00000000       0.00000000       0.00000000       1.12325585
Pr       0.00000000       0.00000000       3.85454545       0.00000000       0.00000000      -1.12325585
2
Properties=species:S:1:pos:R:3:forces:R:3 energy=-5.486282349278543 pbc="F F F"
Pr       0.00000000       0.00000000       0.00000000       0.00000000       0.00000000       1.07367146
Pr       0.00000000       0.00000000       3.91414141       0.00000000       0.00000000      -1.07367146
2
Properties=species:S:1:pos:R:3:forces:R:3 energy=-5.423855670460473 pbc="F F F"
Pr       0.00000000       0.00000000       0.00000000       0.00000000       0.00000000       1.02024305
Pr       0.00000000       0.00000000       3.97373737       0.00000000       0.00000000      -1.02024305
2
Properties=species:S:1:pos:R:3:forces:R:3 energy=-5.364830233899437 pbc="F F F"
Pr       0.00000000       0.00000000       0.00000000       0.00000000       0.00000000       0.95924366
Pr       0.00000000       0.00000000       4.03333333       0.00000000       0.00000000      -0.95924366
2
Properties=species:S:1:pos:R:3:forces:R:3 energy=-5.309682139130628 pbc="F F F"
Pr       0.00000000       0.00000000       0.00000000       0.00000000       0.00000000       0.89030659
Pr       0.00000000       0.00000000       4.09292929       0.00000000       0.00000000      -0.89030659
2
Properties=species:S:1:pos:R:3:forces:R:3 energy=-5.258810364782497 pbc="F F F"
Pr       0.00000000       0.00000000       0.00000000       0.00000000       0.00000000       0.81648767
Pr       0.00000000       0.00000000       4.15252525       0.00000000       0.00000000      -0.81648767
2
Properties=species:S:1:pos:R:3:forces:R:3 energy=-5.212353663107998 pbc="F F F"
Pr       0.00000000       0.00000000       0.00000000       0.00000000       0.00000000       0.74321264
Pr       0.00000000       0.00000000       4.21212121       0.00000000       0.00000000      -0.74321264
2
Properties=species:S:1:pos:R:3:forces:R:3 energy=-5.170089445164479 pbc="F F F"
Pr       0.00000000       0.00000000       0.00000000       0.00000000       0.00000000       0.67675620
Pr       0.00000000       0.00000000       4.27171717       0.00000000       0.00000000      -0.67675620
2
Properties=species:S:1:pos:R:3:forces:R:3 energy=-5.131443068802879 pbc="F F F"
Pr       0.00000000       0.00000000       0.00000000       0.00000000       0.00000000       0.62263447
Pr       0.00000000       0.00000000       4.33131313       0.00000000       0.00000000      -0.62263447
2
Properties=species:S:1:pos:R:3:forces:R:3 energy=-5.095561609043074 pbc="F F F"
Pr       0.00000000       0.00000000       0.00000000       0.00000000       0.00000000       0.58430409
Pr       0.00000000       0.00000000       4.39090909       0.00000000       0.00000000      -0.58430409
2
Properties=species:S:1:pos:R:3:forces:R:3 energy=-5.061468568725042 pbc="F F F"
Pr       0.00000000       0.00000000       0.00000000       0.00000000       0.00000000       0.56246704
Pr       0.00000000       0.00000000       4.45050505       0.00000000       0.00000000      -0.56246704
2
Properties=species:S:1:pos:R:3:forces:R:3 energy=-5.02823358185203 pbc="F F F"
Pr       0.00000000       0.00000000       0.00000000       0.00000000       0.00000000       0.55497599
Pr       0.00000000       0.00000000       4.51010101       0.00000000       0.00000000      -0.55497599
2
Properties=species:S:1:pos:R:3:forces:R:3 energy=-4.995122744008274 pbc="F F F"
Pr       0.00000000       0.00000000       0.00000000       0.00000000       0.00000000       0.55734682
Pr       0.00000000       0.00000000       4.56969697       0.00000000       0.00000000      -0.55734682
2
Properties=species:S:1:pos:R:3:forces:R:3 energy=-4.961721172179943 pbc="F F F"
Pr       0.00000000       0.00000000       0.00000000       0.00000000       0.00000000       0.56375480
Pr       0.00000000       0.00000000       4.62929293       0.00000000       0.00000000      -0.56375480
2
Properties=species:S:1:pos:R:3:forces:R:3 energy=-4.927964590049179 pbc="F F F"
Pr       0.00000000       0.00000000       0.00000000       0.00000000       0.00000000       0.56840867
Pr       0.00000000       0.00000000       4.68888889       0.00000000       0.00000000      -0.56840867
2
Properties=species:S:1:pos:R:3:forces:R:3 energy=-4.894093087461043 pbc="F F F"
Pr       0.00000000       0.00000000       0.00000000       0.00000000       0.00000000       0.56702691
Pr       0.00000000       0.00000000       4.74848485       0.00000000       0.00000000      -0.56702691
2
Properties=species:S:1:pos:R:3:forces:R:3 energy=-4.860531396282934 pbc="F F F"
Pr       0.00000000       0.00000000       0.00000000       0.00000000       0.00000000       0.55811870
Pr       0.00000000       0.00000000       4.80808081       0.00000000       0.00000000      -0.55811870
2
Properties=species:S:1:pos:R:3:forces:R:3 energy=-4.827684141866206 pbc="F F F"
Pr       0.00000000       0.00000000       0.00000000       0.00000000       0.00000000       0.54356480
Pr       0.00000000       0.00000000       4.86767677       0.00000000       0.00000000      -0.54356480
2
Properties=species:S:1:pos:R:3:forces:R:3 energy=-4.79576107989178 pbc="F F F"
Pr       0.00000000       0.00000000       0.00000000       0.00000000       0.00000000       0.52808446
Pr       0.00000000       0.00000000       4.92727273       0.00000000       0.00000000      -0.52808446
2
Properties=species:S:1:pos:R:3:forces:R:3 energy=-4.76464231618112 pbc="F F F"
Pr       0.00000000       0.00000000       0.00000000       0.00000000       0.00000000       0.51748794
Pr       0.00000000       0.00000000       4.98686869       0.00000000       0.00000000      -0.51748794
2
Properties=species:S:1:pos:R:3:forces:R:3 energy=-4.73390027921938 pbc="F F F"
Pr       0.00000000       0.00000000       0.00000000       0.00000000       0.00000000       0.51597273
Pr       0.00000000       0.00000000       5.04646465       0.00000000       0.00000000      -0.51597273
2
Properties=species:S:1:pos:R:3:forces:R:3 energy=-4.702964992579975 pbc="F F F"
Pr       0.00000000       0.00000000       0.00000000       0.00000000       0.00000000       0.52329522
Pr       0.00000000       0.00000000       5.10606061       0.00000000       0.00000000      -0.52329522
2
Properties=species:S:1:pos:R:3:forces:R:3 energy=-4.671475204471053 pbc="F F F"
Pr       0.00000000       0.00000000       0.00000000       0.00000000       0.00000000       0.53277123
Pr       0.00000000       0.00000000       5.16565657       0.00000000       0.00000000      -0.53277123
2
Properties=species:S:1:pos:R:3:forces:R:3 energy=-4.639663583460302 pbc="F F F"
Pr       0.00000000       0.00000000       0.00000000       0.00000000       0.00000000       0.53201443
Pr       0.00000000       0.00000000       5.22525253       0.00000000       0.00000000      -0.53201443
2
Properties=species:S:1:pos:R:3:forces:R:3 energy=-4.60848770930929 pbc="F F F"
Pr       0.00000000       0.00000000       0.00000000       0.00000000       0.00000000       0.51072788
Pr       0.00000000       0.00000000       5.28484848       0.00000000       0.00000000      -0.51072788
2
Properties=species:S:1:pos:R:3:forces:R:3 energy=-4.579023574122085 pbc="F F F"
Pr       0.00000000       0.00000000       0.00000000       0.00000000       0.00000000       0.47883961
Pr       0.00000000       0.00000000       5.34444444       0.00000000       0.00000000      -0.47883961
2
Properties=species:S:1:pos:R:3:forces:R:3 energy=-4.550881370914609 pbc="F F F"
Pr       0.00000000       0.00000000       0.00000000       0.00000000       0.00000000       0.47282743
Pr       0.00000000       0.00000000       5.40404040       0.00000000       0.00000000      -0.47282743
2
Properties=species:S:1:pos:R:3:forces:R:3 energy=-4.5219122197553965 pbc="F F F"
Pr       0.00000000       0.00000000       0.00000000       0.00000000       0.00000000       0.50127971
Pr       0.00000000       0.00000000       5.46363636       0.00000000       0.00000000      -0.50127971
2
Properties=species:S:1:pos:R:3:forces:R:3 energy=-4.491648859972449 pbc="F F F"
Pr       0.00000000       0.00000000       0.00000000       0.00000000       0.00000000       0.50573164
Pr       0.00000000       0.00000000       5.52323232       0.00000000       0.00000000      -0.50573164
2
Properties=species:S:1:pos:R:3:forces:R:3 energy=-4.4627285195620185 pbc="F F F"
Pr       0.00000000       0.00000000       0.00000000       0.00000000       0.00000000       0.45858905
Pr       0.00000000       0.00000000       5.58282828       0.00000000       0.00000000      -0.45858905
2
Properties=species:S:1:pos:R:3:forces:R:3 energy=-4.437069801244722 pbc="F F F"
Pr       0.00000000       0.00000000       0.00000000       0.00000000       0.00000000       0.40756536
Pr       0.00000000       0.00000000       5.64242424       0.00000000       0.00000000      -0.40756536
2
Properties=species:S:1:pos:R:3:forces:R:3 energy=-4.413084271812902 pbc="F F F"
Pr       0.00000000       0.00000000       0.00000000       0.00000000       0.00000000       0.40681523
Pr       0.00000000       0.00000000       5.70202020       0.00000000       0.00000000      -0.40681523
2
Properties=species:S:1:pos:R:3:forces:R:3 energy=-4.387959769184201 pbc="F F F"
Pr       0.00000000       0.00000000       0.00000000       0.00000000       0.00000000       0.43466642
Pr       0.00000000       0.00000000       5.76161616       0.00000000       0.00000000      -0.43466642
2
Properties=species:S:1:pos:R:3:forces:R:3 energy=-4.362670943903515 pbc="F F F"
Pr       0.00000000       0.00000000       0.00000000       0.00000000       0.00000000       0.39506963
Pr       0.00000000       0.00000000       5.82121212       0.00000000       0.00000000      -0.39506963
2
Properties=species:S:1:pos:R:3:forces:R:3 energy=-4.342983879007596 pbc="F F F"
Pr       0.00000000       0.00000000       0.00000000       0.00000000       0.00000000       0.25641480
Pr       0.00000000       0.00000000       5.88080808       0.00000000       0.00000000      -0.25641480
2
Properties=species:S:1:pos:R:3:forces:R:3 energy=-4.332255671538148 pbc="F F F"
Pr       0.00000000       0.00000000       0.00000000       0.00000000       0.00000000       0.10856847
Pr       0.00000000       0.00000000       5.94040404       0.00000000       0.00000000      -0.10856847
2
Properties=species:S:1:pos:R:3:forces:R:3 energy=-4.32820202313845 pbc="F F F"
Pr       0.00000000       0.00000000       0.00000000       0.00000000       0.00000000       0.04782233
Pr       0.00000000       0.00000000       6.00000000       0.00000000       0.00000000      -0.04782233
