2
Properties=species:S:1:pos:R:3:forces:R:3 energy=84570.44913141172 pbc="F F F"
Pt       0.00000000       0.00000000       0.00000000       0.00000000       0.00000000 -2141778.75000000
Pt       0.00000000       0.00000000       0.10000000       0.00000000       0.00000000 2141778.75000000
2
Properties=species:S:1:pos:R:3:forces:R:3 energy=23259.43155328671 pbc="F F F"
Pt       0.00000000       0.00000000       0.00000000       0.00000000       0.00000000 -437680.09375000
Pt       0.00000000       0.00000000       0.15959596       0.00000000       0.00000000  437680.09375000
2
Properties=species:S:1:pos:R:3:forces:R:3 energy=8456.320225161711 pbc="F F F"
Pt       0.00000000       0.00000000       0.00000000       0.00000000       0.00000000 -130519.89062500
Pt       0.00000000       0.00000000       0.21919192       0.00000000       0.00000000  130519.89062500
2
Properties=species:S:1:pos:R:3:forces:R:3 energy=3617.5365337586295 pbc="F F F"
Pt       0.00000000       0.00000000       0.00000000       0.00000000       0.00000000  -47586.88281250
Pt       0.00000000       0.00000000       0.27878788       0.00000000       0.00000000   47586.88281250
2
Properties=species:S:1:pos:R:3:forces:R:3 energy=1754.134556219567 pbc="F F F"
Pt       0.00000000       0.00000000       0.00000000       0.00000000       0.00000000  -19547.28125000
Pt       0.00000000       0.00000000       0.33838384       0.00000000       0.00000000   19547.28125000
2
Properties=species:S:1:pos:R:3:forces:R:3 energy=959.4599956821954 pbc="F F F"
Pt       0.00000000       0.00000000       0.00000000       0.00000000       0.00000000   -8722.25585938
Pt       0.00000000       0.00000000       0.39797980       0.00000000       0.00000000    8722.25585938
2
Properties=species:S:1:pos:R:3:forces:R:3 energy=593.9748272314998 pbc="F F F"
Pt       0.00000000       0.00000000       0.00000000       0.00000000       0.00000000   -4165.04980469
Pt       0.00000000       0.00000000       0.45757576       0.00000000       0.00000000    4165.04980469
2
Properties=species:S:1:pos:R:3:forces:R:3 energy=414.3835186599246 pbc="F F F"
Pt       0.00000000       0.00000000       0.00000000       0.00000000       0.00000000   -2123.48950195
Pt       0.00000000       0.00000000       0.51717172       0.00000000       0.00000000    2123.48950195
2
Properties=species:S:1:pos:R:3:forces:R:3 energy=319.74142885102066 pbc="F F F"
Pt       0.00000000       0.00000000       0.00000000       0.00000000       0.00000000   -1170.56213379
Pt       0.00000000       0.00000000       0.57676768       0.00000000       0.00000000    1170.56213379
2
Properties=species:S:1:pos:R:3:forces:R:3 energy=264.6018109944552 pbc="F F F"
Pt       0.00000000       0.00000000       0.00000000       0.00000000       0.00000000    -762.80987549
Pt       0.00000000       0.00000000       0.63636364       0.00000000       0.00000000     762.80987549
2
Properties=species:S:1:pos:R:3:forces:R:3 energy=225.62291400109896 pbc="F F F"
Pt       0.00000000       0.00000000       0.00000000       0.00000000       0.00000000    -576.15850830
Pt       0.00000000       0.00000000       0.69595960       0.00000000       0.00000000     576.15850830
2
Properties=species:S:1:pos:R:3:forces:R:3 energy=193.22514803987318 pbc="F F F"
Pt       0.00000000       0.00000000       0.00000000       0.00000000       0.00000000    -544.45269775
Pt       0.00000000       0.00000000       0.75555556       0.00000000       0.00000000     544.45269775
2
Properties=species:S:1:pos:R:3:forces:R:3 energy=160.81517512342512 pbc="F F F"
Pt       0.00000000       0.00000000       0.00000000       0.00000000       0.00000000    -525.65600586
Pt       0.00000000       0.00000000       0.81515152       0.00000000       0.00000000     525.65600586
2
Properties=species:S:1:pos:R:3:forces:R:3 energy=128.31755582397238 pbc="F F F"
Pt       0.00000000       0.00000000       0.00000000       0.00000000       0.00000000    -539.27209473
Pt       0.00000000       0.00000000       0.87474747       0.00000000       0.00000000     539.27209473
2
Properties=species:S:1:pos:R:3:forces:R:3 energy=96.80337324204082 pbc="F F F"
Pt       0.00000000       0.00000000       0.00000000       0.00000000       0.00000000    -501.47708130
Pt       0.00000000       0.00000000       0.93434343       0.00000000       0.00000000     501.47708130
2
Properties=species:S:1:pos:R:3:forces:R:3 energy=70.23519761874529 pbc="F F F"
Pt       0.00000000       0.00000000       0.00000000       0.00000000       0.00000000    -386.56396484
Pt       0.00000000       0.00000000       0.99393939       0.00000000       0.00000000     386.56396484
2
Properties=species:S:1:pos:R:3:forces:R:3 energy=50.81994581068515 pbc="F F F"
Pt       0.00000000       0.00000000       0.00000000       0.00000000       0.00000000    -266.75411987
Pt       0.00000000       0.00000000       1.05353535       0.00000000       0.00000000     266.75411987
2
Properties=species:S:1:pos:R:3:forces:R:3 energy=38.66806480798066 pbc="F F F"
Pt       0.00000000       0.00000000       0.00000000       0.00000000       0.00000000    -145.50755310
Pt       0.00000000       0.00000000       1.11313131       0.00000000       0.00000000     145.50755310
2
Properties=species:S:1:pos:R:3:forces:R:3 energy=32.72152551819052 pbc="F F F"
Pt       0.00000000       0.00000000       0.00000000       0.00000000       0.00000000     -56.29408646
Pt       0.00000000       0.00000000       1.17272727       0.00000000       0.00000000      56.29408646
2
Properties=species:S:1:pos:R:3:forces:R:3 energy=30.649824566268617 pbc="F F F"
Pt       0.00000000       0.00000000       0.00000000       0.00000000       0.00000000     -26.25501060
Pt       0.00000000       0.00000000       1.23232323       0.00000000       0.00000000      26.25501060
2
Properties=species:S:1:pos:R:3:forces:R:3 energy=28.699654714223797 pbc="F F F"
Pt       0.00000000       0.00000000       0.00000000       0.00000000       0.00000000     -42.62845230
Pt       0.00000000       0.00000000       1.29191919       0.00000000       0.00000000      42.62845230
2
Properties=species:S:1:pos:R:3:forces:R:3 energy=25.556496216070254 pbc="F F F"
Pt       0.00000000       0.00000000       0.00000000       0.00000000       0.00000000     -59.64324188
Pt       0.00000000       0.00000000       1.35151515       0.00000000       0.00000000      59.64324188
2
Properties=species:S:1:pos:R:3:forces:R:3 energy=22.03803910048641 pbc="F F F"
Pt       0.00000000       0.00000000       0.00000000       0.00000000       0.00000000     -56.99652863
Pt       0.00000000       0.00000000       1.41111111       0.00000000       0.00000000      56.99652863
2
Properties=species:S:1:pos:R:3:forces:R:3 energy=18.59107042853129 pbc="F F F"
Pt       0.00000000       0.00000000       0.00000000       0.00000000       0.00000000     -60.89123154
Pt       0.00000000       0.00000000       1.47070707       0.00000000       0.00000000      60.89123154
2
Properties=species:S:1:pos:R:3:forces:R:3 energy=14.73396005545337 pbc="F F F"
Pt       0.00000000       0.00000000       0.00000000       0.00000000       0.00000000     -66.92093658
Pt       0.00000000       0.00000000       1.53030303       0.00000000       0.00000000      66.92093658
2
Properties=species:S:1:pos:R:3:forces:R:3 energy=10.881335300370267 pbc="F F F"
Pt       0.00000000       0.00000000       0.00000000       0.00000000       0.00000000     -60.62924194
Pt       0.00000000       0.00000000       1.58989899       0.00000000       0.00000000      60.62924194
2
Properties=species:S:1:pos:R:3:forces:R:3 energy=7.5900825938373 pbc="F F F"
Pt       0.00000000       0.00000000       0.00000000       0.00000000       0.00000000     -49.92376328
Pt       0.00000000       0.00000000       1.64949495       0.00000000       0.00000000      49.92376328
2
Properties=species:S:1:pos:R:3:forces:R:3 energy=4.885629066575549 pbc="F F F"
Pt       0.00000000       0.00000000       0.00000000       0.00000000       0.00000000     -41.26582336
Pt       0.00000000       0.00000000       1.70909091       0.00000000       0.00000000      41.26582336
2
Properties=species:S:1:pos:R:3:forces:R:3 energy=2.6316215046165476 pbc="F F F"
Pt       0.00000000       0.00000000       0.00000000       0.00000000       0.00000000     -34.59830093
Pt       0.00000000       0.00000000       1.76868687       0.00000000       0.00000000      34.59830093
2
Properties=species:S:1:pos:R:3:forces:R:3 energy=0.7462382238915858 pbc="F F F"
Pt       0.00000000       0.00000000       0.00000000       0.00000000       0.00000000     -28.74505424
Pt       0.00000000       0.00000000       1.82828283       0.00000000       0.00000000      28.74505424
2
Properties=species:S:1:pos:R:3:forces:R:3 energy=-0.8010738953476273 pbc="F F F"
Pt       0.00000000       0.00000000       0.00000000       0.00000000       0.00000000     -23.23987961
Pt       0.00000000       0.00000000       1.88787879       0.00000000       0.00000000      23.23987961
2
Properties=species:S:1:pos:R:3:forces:R:3 energy=-2.0326357951296252 pbc="F F F"
Pt       0.00000000       0.00000000       0.00000000       0.00000000       0.00000000     -18.18047142
Pt       0.00000000       0.00000000       1.94747475       0.00000000       0.00000000      18.18047142
2
Properties=species:S:1:pos:R:3:forces:R:3 energy=-2.9798922295074997 pbc="F F F"
Pt       0.00000000       0.00000000       0.00000000       0.00000000       0.00000000     -13.71317387
Pt       0.00000000       0.00000000       2.00707071       0.00000000       0.00000000      13.71317387
2
Properties=species:S:1:pos:R:3:forces:R:3 energy=-3.679557827598165 pbc="F F F"
Pt       0.00000000       0.00000000       0.00000000       0.00000000       0.00000000      -9.86939526
Pt       0.00000000       0.00000000       2.06666667       0.00000000       0.00000000       9.86939526
2
Properties=species:S:1:pos:R:3:forces:R:3 energy=-4.168051592575863 pbc="F F F"
Pt       0.00000000       0.00000000       0.00000000       0.00000000       0.00000000      -6.61965656
Pt       0.00000000       0.00000000       2.12626263       0.00000000       0.00000000       6.61965656
2
Properties=species:S:1:pos:R:3:forces:R:3 energy=-4.479562001942318 pbc="F F F"
Pt       0.00000000       0.00000000       0.00000000       0.00000000       0.00000000      -3.92341161
Pt       0.00000000       0.00000000       2.18585859       0.00000000       0.00000000       3.92341161
2
Properties=species:S:1:pos:R:3:forces:R:3 energy=-4.6459182359915925 pbc="F F F"
Pt       0.00000000       0.00000000       0.00000000       0.00000000       0.00000000      -1.74216592
Pt       0.00000000       0.00000000       2.24545455       0.00000000       0.00000000       1.74216592
2
Properties=species:S:1:pos:R:3:forces:R:3 energy=-4.6966871339844625 pbc="F F F"
Pt       0.00000000       0.00000000       0.00000000       0.00000000       0.00000000      -0.03762551
Pt       0.00000000       0.00000000       2.30505051       0.00000000       0.00000000       0.03762551
2
Properties=species:S:1:pos:R:3:forces:R:3 energy=-4.6589937161557256 pbc="F F F"
Pt       0.00000000       0.00000000       0.00000000       0.00000000       0.00000000       1.23491096
Pt       0.00000000       0.00000000       2.36464646       0.00000000       0.00000000      -1.23491096
2
Properties=species:S:1:pos:R:3:forces:R:3 energy=-4.556993731805441 pbc="F F F"
Pt       0.00000000       0.00000000       0.00000000       0.00000000       0.00000000       2.13014698
Pt       0.00000000       0.00000000       2.42424242       0.00000000       0.00000000      -2.13014698
2
Properties=species:S:1:pos:R:3:forces:R:3 energy=-4.411379635332263 pbc="F F F"
Pt       0.00000000       0.00000000       0.00000000       0.00000000       0.00000000       2.70906520
Pt       0.00000000       0.00000000       2.48383838       0.00000000       0.00000000      -2.70906520
2
Properties=species:S:1:pos:R:3:forces:R:3 energy=-4.239169833168093 pbc="F F F"
Pt       0.00000000       0.00000000       0.00000000       0.00000000       0.00000000       3.03236985
Pt       0.00000000       0.00000000       2.54343434       0.00000000       0.00000000      -3.03236985
2
Properties=species:S:1:pos:R:3:forces:R:3 energy=-4.053882709818181 pbc="F F F"
Pt       0.00000000       0.00000000       0.00000000       0.00000000       0.00000000       3.15742183
Pt       0.00000000       0.00000000       2.60303030       0.00000000       0.00000000      -3.15742183
2
Properties=species:S:1:pos:R:3:forces:R:3 energy=-3.8656762699454186 pbc="F F F"
Pt       0.00000000       0.00000000       0.00000000       0.00000000       0.00000000       3.13915515
Pt       0.00000000       0.00000000       2.66262626       0.00000000       0.00000000      -3.13915515
2
Properties=species:S:1:pos:R:3:forces:R:3 energy=-3.6815405672483945 pbc="F F F"
Pt       0.00000000       0.00000000       0.00000000       0.00000000       0.00000000       3.02901220
Pt       0.00000000       0.00000000       2.72222222       0.00000000       0.00000000      -3.02901220
2
Properties=species:S:1:pos:R:3:forces:R:3 energy=-3.505598030611435 pbc="F F F"
Pt       0.00000000       0.00000000       0.00000000       0.00000000       0.00000000       2.87053847
Pt       0.00000000       0.00000000       2.78181818       0.00000000       0.00000000      -2.87053847
2
Properties=species:S:1:pos:R:3:forces:R:3 energy=-3.3396762178314265 pbc="F F F"
Pt       0.00000000       0.00000000       0.00000000       0.00000000       0.00000000       2.69759130
Pt       0.00000000       0.00000000       2.84141414       0.00000000       0.00000000      -2.69759130
2
Properties=species:S:1:pos:R:3:forces:R:3 energy=-3.183866833101955 pbc="F F F"
Pt       0.00000000       0.00000000       0.00000000       0.00000000       0.00000000       2.53440809
Pt       0.00000000       0.00000000       2.90101010       0.00000000       0.00000000      -2.53440809
2
Properties=species:S:1:pos:R:3:forces:R:3 energy=-3.0371285960714114 pbc="F F F"
Pt       0.00000000       0.00000000       0.00000000       0.00000000       0.00000000       2.39431906
Pt       0.00000000       0.00000000       2.96060606       0.00000000       0.00000000      -2.39431906
2
Properties=species:S:1:pos:R:3:forces:R:3 energy=-2.897975587988249 pbc="F F F"
Pt       0.00000000       0.00000000       0.00000000       0.00000000       0.00000000       2.27934694
Pt       0.00000000       0.00000000       3.02020202       0.00000000       0.00000000      -2.27934694
2
Properties=species:S:1:pos:R:3:forces:R:3 energy=-2.765086839436807 pbc="F F F"
Pt       0.00000000       0.00000000       0.00000000       0.00000000       0.00000000       2.18246484
Pt       0.00000000       0.00000000       3.07979798       0.00000000       0.00000000      -2.18246484
2
Properties=species:S:1:pos:R:3:forces:R:3 energy=-2.637713998686946 pbc="F F F"
Pt       0.00000000       0.00000000       0.00000000       0.00000000       0.00000000       2.09216738
Pt       0.00000000       0.00000000       3.13939394       0.00000000       0.00000000      -2.09216738
2
Properties=species:S:1:pos:R:3:forces:R:3 energy=-2.51580181064088 pbc="F F F"
Pt       0.00000000       0.00000000       0.00000000       0.00000000       0.00000000       1.99778664
Pt       0.00000000       0.00000000       3.19898990       0.00000000       0.00000000      -1.99778664
2
Properties=species:S:1:pos:R:3:forces:R:3 energy=-2.3997939590908106 pbc="F F F"
Pt       0.00000000       0.00000000       0.00000000       0.00000000       0.00000000       1.89356565
Pt       0.00000000       0.00000000       3.25858586       0.00000000       0.00000000      -1.89356565
2
Properties=species:S:1:pos:R:3:forces:R:3 energy=-2.290292873420933 pbc="F F F"
Pt       0.00000000       0.00000000       0.00000000       0.00000000       0.00000000       1.77996337
Pt       0.00000000       0.00000000       3.31818182       0.00000000       0.00000000      -1.77996337
2
Properties=species:S:1:pos:R:3:forces:R:3 energy=-2.187723141762365 pbc="F F F"
Pt       0.00000000       0.00000000       0.00000000       0.00000000       0.00000000       1.66201615
Pt       0.00000000       0.00000000       3.37777778       0.00000000       0.00000000      -1.66201615
2
Properties=species:S:1:pos:R:3:forces:R:3 energy=-2.0921504680963157 pbc="F F F"
Pt       0.00000000       0.00000000       0.00000000       0.00000000       0.00000000       1.54619598
Pt       0.00000000       0.00000000       3.43737374       0.00000000       0.00000000      -1.54619598
2
Properties=species:S:1:pos:R:3:forces:R:3 energy=-2.003280496000301 pbc="F F F"
Pt       0.00000000       0.00000000       0.00000000       0.00000000       0.00000000       1.43776727
Pt       0.00000000       0.00000000       3.49696970       0.00000000       0.00000000      -1.43776727
2
Properties=species:S:1:pos:R:3:forces:R:3 energy=-1.920570922401119 pbc="F F F"
Pt       0.00000000       0.00000000       0.00000000       0.00000000       0.00000000       1.33977056
Pt       0.00000000       0.00000000       3.55656566       0.00000000       0.00000000      -1.33977056
2
Properties=species:S:1:pos:R:3:forces:R:3 energy=-1.8433617501467718 pbc="F F F"
Pt       0.00000000       0.00000000       0.00000000       0.00000000       0.00000000       1.25326896
Pt       0.00000000       0.00000000       3.61616162       0.00000000       0.00000000      -1.25326896
2
Properties=species:S:1:pos:R:3:forces:R:3 energy=-1.7709718221884247 pbc="F F F"
Pt       0.00000000       0.00000000       0.00000000       0.00000000       0.00000000       1.17786252
Pt       0.00000000       0.00000000       3.67575758       0.00000000       0.00000000      -1.17786252
2
Properties=species:S:1:pos:R:3:forces:R:3 energy=-1.7027804874473442 pbc="F F F"
Pt       0.00000000       0.00000000       0.00000000       0.00000000       0.00000000       1.11196053
Pt       0.00000000       0.00000000       3.73535354       0.00000000       0.00000000      -1.11196053
2
Properties=species:S:1:pos:R:3:forces:R:3 energy=-1.6382982950914236 pbc="F F F"
Pt       0.00000000       0.00000000       0.00000000       0.00000000       0.00000000       1.05286801
Pt       0.00000000       0.00000000       3.79494949       0.00000000       0.00000000      -1.05286801
2
Properties=species:S:1:pos:R:3:forces:R:3 energy=-1.5772212886149057 pbc="F F F"
Pt       0.00000000       0.00000000       0.00000000       0.00000000       0.00000000       0.99708968
Pt       0.00000000       0.00000000       3.85454545       0.00000000       0.00000000      -0.99708968
2
Properties=species:S:1:pos:R:3:forces:R:3 energy=-1.5194616489614419 pbc="F F F"
Pt       0.00000000       0.00000000       0.00000000       0.00000000       0.00000000       0.94094074
Pt       0.00000000       0.00000000       3.91414141       0.00000000       0.00000000      -0.94094074
2
Properties=species:S:1:pos:R:3:forces:R:3 energy=-1.4651382769902168 pbc="F F F"
Pt       0.00000000       0.00000000       0.00000000       0.00000000       0.00000000       0.88131344
Pt       0.00000000       0.00000000       3.97373737       0.00000000       0.00000000      -0.88131344
2
Properties=species:S:1:pos:R:3:forces:R:3 energy=-1.414523457406317 pbc="F F F"
Pt       0.00000000       0.00000000       0.00000000       0.00000000       0.00000000       0.81632340
Pt       0.00000000       0.00000000       4.03333333       0.00000000       0.00000000      -0.81632340
2
Properties=species:S:1:pos:R:3:forces:R:3 energy=-1.3679540910215744 pbc="F F F"
Pt       0.00000000       0.00000000       0.00000000       0.00000000       0.00000000       0.74560142
Pt       0.00000000       0.00000000       4.09292929       0.00000000       0.00000000      -0.74560142
2
Properties=species:S:1:pos:R:3:forces:R:3 energy=-1.3257457353533326 pbc="F F F"
Pt       0.00000000       0.00000000       0.00000000       0.00000000       0.00000000       0.67026365
Pt       0.00000000       0.00000000       4.15252525       0.00000000       0.00000000      -0.67026365
2
Properties=species:S:1:pos:R:3:forces:R:3 energy=-1.288111149833641 pbc="F F F"
Pt       0.00000000       0.00000000       0.00000000       0.00000000       0.00000000       0.59260416
Pt       0.00000000       0.00000000       4.21212121       0.00000000       0.00000000      -0.59260416
2
Properties=species:S:1:pos:R:3:forces:R:3 energy=-1.2550978796587324 pbc="F F F"
Pt       0.00000000       0.00000000       0.00000000       0.00000000       0.00000000       0.51567358
Pt       0.00000000       0.00000000       4.27171717       0.00000000       0.00000000      -0.51567358
2
Properties=species:S:1:pos:R:3:forces:R:3 energy=-1.2265658000930764 pbc="F F F"
Pt       0.00000000       0.00000000       0.00000000       0.00000000       0.00000000       0.44280788
Pt       0.00000000       0.00000000       4.33131313       0.00000000       0.00000000      -0.44280788
2
Properties=species:S:1:pos:R:3:forces:R:3 energy=-1.2021763769619025 pbc="F F F"
Pt       0.00000000       0.00000000       0.00000000       0.00000000       0.00000000       0.37711203
Pt       0.00000000       0.00000000       4.39090909       0.00000000       0.00000000      -0.37711203
2
Properties=species:S:1:pos:R:3:forces:R:3 energy=-1.1814254175276044 pbc="F F F"
Pt       0.00000000       0.00000000       0.00000000       0.00000000       0.00000000       0.32102120
Pt       0.00000000       0.00000000       4.45050505       0.00000000       0.00000000      -0.32102120
2
Properties=species:S:1:pos:R:3:forces:R:3 energy=-1.1636939606010488 pbc="F F F"
Pt       0.00000000       0.00000000       0.00000000       0.00000000       0.00000000       0.27591071
Pt       0.00000000       0.00000000       4.51010101       0.00000000       0.00000000      -0.27591071
2
Properties=species:S:1:pos:R:3:forces:R:3 energy=-1.148318503900369 pbc="F F F"
Pt       0.00000000       0.00000000       0.00000000       0.00000000       0.00000000       0.24184799
Pt       0.00000000       0.00000000       4.56969697       0.00000000       0.00000000      -0.24184799
2
Properties=species:S:1:pos:R:3:forces:R:3 energy=-1.13467216023457 pbc="F F F"
Pt       0.00000000       0.00000000       0.00000000       0.00000000       0.00000000       0.21758395
Pt       0.00000000       0.00000000       4.62929293       0.00000000       0.00000000      -0.21758395
2
Properties=species:S:1:pos:R:3:forces:R:3 energy=-1.1222363918174891 pbc="F F F"
Pt       0.00000000       0.00000000       0.00000000       0.00000000       0.00000000       0.20075496
Pt       0.00000000       0.00000000       4.68888889       0.00000000       0.00000000      -0.20075496
2
Properties=species:S:1:pos:R:3:forces:R:3 energy=-1.1106567891279264 pbc="F F F"
Pt       0.00000000       0.00000000       0.00000000       0.00000000       0.00000000       0.18830368
Pt       0.00000000       0.00000000       4.74848485       0.00000000       0.00000000      -0.18830368
2
Properties=species:S:1:pos:R:3:forces:R:3 energy=-1.0997673646780952 pbc="F F F"
Pt       0.00000000       0.00000000       0.00000000       0.00000000       0.00000000       0.17712839
Pt       0.00000000       0.00000000       4.80808081       0.00000000       0.00000000      -0.17712839
2
Properties=species:S:1:pos:R:3:forces:R:3 energy=-1.0895684481939425 pbc="F F F"
Pt       0.00000000       0.00000000       0.00000000       0.00000000       0.00000000       0.16479886
Pt       0.00000000       0.00000000       4.86767677       0.00000000       0.00000000      -0.16479886
2
Properties=species:S:1:pos:R:3:forces:R:3 energy=-1.0801703105406162 pbc="F F F"
Pt       0.00000000       0.00000000       0.00000000       0.00000000       0.00000000       0.15019795
Pt       0.00000000       0.00000000       4.92727273       0.00000000       0.00000000      -0.15019795
2
Properties=species:S:1:pos:R:3:forces:R:3 energy=-1.0717022149540938 pbc="F F F"
Pt       0.00000000       0.00000000       0.00000000       0.00000000       0.00000000       0.13381284
Pt       0.00000000       0.00000000       4.98686869       0.00000000       0.00000000      -0.13381284
2
Properties=species:S:1:pos:R:3:forces:R:3 energy=-1.06422206748708 pbc="F F F"
Pt       0.00000000       0.00000000       0.00000000       0.00000000       0.00000000       0.11742186
Pt       0.00000000       0.00000000       5.04646465       0.00000000       0.00000000      -0.11742186
2
Properties=species:S:1:pos:R:3:forces:R:3 energy=-1.0576654782124133 pbc="F F F"
Pt       0.00000000       0.00000000       0.00000000       0.00000000       0.00000000       0.10308303
Pt       0.00000000       0.00000000       5.10606061       0.00000000       0.00000000      -0.10308303
2
Properties=species:S:1:pos:R:3:forces:R:3 energy=-1.051872296961346 pbc="F F F"
Pt       0.00000000       0.00000000       0.00000000       0.00000000       0.00000000       0.09178971
Pt       0.00000000       0.00000000       5.16565657       0.00000000       0.00000000      -0.09178971
2
Properties=species:S:1:pos:R:3:forces:R:3 energy=-1.046683182351546 pbc="F F F"
Pt       0.00000000       0.00000000       0.00000000       0.00000000       0.00000000       0.08250488
Pt       0.00000000       0.00000000       5.22525253       0.00000000       0.00000000      -0.08250488
2
Properties=species:S:1:pos:R:3:forces:R:3 energy=-1.0420499864213981 pbc="F F F"
Pt       0.00000000       0.00000000       0.00000000       0.00000000       0.00000000       0.07271180
Pt       0.00000000       0.00000000       5.28484848       0.00000000       0.00000000      -0.07271180
2
Properties=species:S:1:pos:R:3:forces:R:3 energy=-1.038045737700058 pbc="F F F"
Pt       0.00000000       0.00000000       0.00000000       0.00000000       0.00000000       0.06171180
Pt       0.00000000       0.00000000       5.34444444       0.00000000       0.00000000      -0.06171180
2
Properties=species:S:1:pos:R:3:forces:R:3 energy=-1.034596293969073 pbc="F F F"
Pt       0.00000000       0.00000000       0.00000000       0.00000000       0.00000000       0.05582557
Pt       0.00000000       0.00000000       5.40404040       0.00000000       0.00000000      -0.05582557
2
Properties=species:S:1:pos:R:3:forces:R:3 energy=-1.0311281445440685 pbc="F F F"
Pt       0.00000000       0.00000000       0.00000000       0.00000000       0.00000000       0.06216661
Pt       0.00000000       0.00000000       5.46363636       0.00000000       0.00000000      -0.06216661
2
Properties=species:S:1:pos:R:3:forces:R:3 energy=-1.0272284934937916 pbc="F F F"
Pt       0.00000000       0.00000000       0.00000000       0.00000000       0.00000000       0.06655324
Pt       0.00000000       0.00000000       5.52323232       0.00000000       0.00000000      -0.06655324
2
Properties=species:S:1:pos:R:3:forces:R:3 energy=-1.0234822795391558 pbc="F F F"
Pt       0.00000000       0.00000000       0.00000000       0.00000000       0.00000000       0.05773815
Pt       0.00000000       0.00000000       5.58282828       0.00000000       0.00000000      -0.05773815
2
Properties=species:S:1:pos:R:3:forces:R:3 energy=-1.0203400478062445 pbc="F F F"
Pt       0.00000000       0.00000000       0.00000000       0.00000000       0.00000000       0.04890659
Pt       0.00000000       0.00000000       5.64242424       0.00000000       0.00000000      -0.04890659
2
Properties=species:S:1:pos:R:3:forces:R:3 energy=-1.0174792906012962 pbc="F F F"
Pt       0.00000000       0.00000000       0.00000000       0.00000000       0.00000000       0.04797479
Pt       0.00000000       0.00000000       5.70202020       0.00000000       0.00000000      -0.04797479
2
Properties=species:S:1:pos:R:3:forces:R:3 energy=-1.0147246405478123 pbc="F F F"
Pt       0.00000000       0.00000000       0.00000000       0.00000000       0.00000000       0.04169077
Pt       0.00000000       0.00000000       5.76161616       0.00000000       0.00000000      -0.04169077
2
Properties=species:S:1:pos:R:3:forces:R:3 energy=-1.0128863926890375 pbc="F F F"
Pt       0.00000000       0.00000000       0.00000000       0.00000000       0.00000000       0.01851784
Pt       0.00000000       0.00000000       5.82121212       0.00000000       0.00000000      -0.01851784
2
Properties=species:S:1:pos:R:3:forces:R:3 energy=-1.0123394659841096 pbc="F F F"
Pt       0.00000000       0.00000000       0.00000000       0.00000000       0.00000000       0.00320438
Pt       0.00000000       0.00000000       5.88080808       0.00000000       0.00000000      -0.00320438
2
Properties=species:S:1:pos:R:3:forces:R:3 energy=-1.0121622243129693 pbc="F F F"
Pt       0.00000000       0.00000000       0.00000000       0.00000000       0.00000000       0.00437089
Pt       0.00000000       0.00000000       5.94040404       0.00000000       0.00000000      -0.00437089
2
Properties=species:S:1:pos:R:3:forces:R:3 energy=-1.0118079439792382 pbc="F F F"
Pt       0.00000000       0.00000000       0.00000000       0.00000000       0.00000000       0.00667370
Pt       0.00000000       0.00000000       6.00000000       0.00000000       0.00000000      -0.00667370
