2
Properties=species:S:1:pos:R:3:forces:R:3 energy=26175.207163722764 pbc="F F F"
Rb       0.00000000       0.00000000       0.00000000       0.00000000       0.00000000 -610259.37500000
Rb       0.00000000       0.00000000       0.10000000       0.00000000       0.00000000  610259.37500000
2
Properties=species:S:1:pos:R:3:forces:R:3 energy=7949.185679347762 pbc="F F F"
Rb       0.00000000       0.00000000       0.00000000       0.00000000       0.00000000 -138365.25000000
Rb       0.00000000       0.00000000       0.15959596       0.00000000       0.00000000  138365.25000000
2
Properties=species:S:1:pos:R:3:forces:R:3 energy=3115.918101222762 pbc="F F F"
Rb       0.00000000       0.00000000       0.00000000       0.00000000       0.00000000  -44598.30468750
Rb       0.00000000       0.00000000       0.21919192       0.00000000       0.00000000   44598.30468750
2
Properties=species:S:1:pos:R:3:forces:R:3 energy=1409.2141217305743 pbc="F F F"
Rb       0.00000000       0.00000000       0.00000000       0.00000000       0.00000000  -17549.32226562
Rb       0.00000000       0.00000000       0.27878788       0.00000000       0.00000000   17549.32226562
2
Properties=species:S:1:pos:R:3:forces:R:3 energy=698.2435406758868 pbc="F F F"
Rb       0.00000000       0.00000000       0.00000000       0.00000000       0.00000000   -7803.99853516
Rb       0.00000000       0.00000000       0.33838384       0.00000000       0.00000000    7803.99853516
2
Properties=species:S:1:pos:R:3:forces:R:3 energy=369.99723330284 pbc="F F F"
Rb       0.00000000       0.00000000       0.00000000       0.00000000       0.00000000   -3760.36596680
Rb       0.00000000       0.00000000       0.39797980       0.00000000       0.00000000    3760.36596680
2
Properties=species:S:1:pos:R:3:forces:R:3 energy=207.5120190710255 pbc="F F F"
Rb       0.00000000       0.00000000       0.00000000       0.00000000       0.00000000   -1920.15356445
Rb       0.00000000       0.00000000       0.45757576       0.00000000       0.00000000    1920.15356445
2
Properties=species:S:1:pos:R:3:forces:R:3 energy=122.75030032102549 pbc="F F F"
Rb       0.00000000       0.00000000       0.00000000       0.00000000       0.00000000   -1026.97778320
Rb       0.00000000       0.00000000       0.51717172       0.00000000       0.00000000    1026.97778320
2
Properties=species:S:1:pos:R:3:forces:R:3 energy=76.57641879343159 pbc="F F F"
Rb       0.00000000       0.00000000       0.00000000       0.00000000       0.00000000    -571.64251709
Rb       0.00000000       0.00000000       0.57676768       0.00000000       0.00000000     571.64251709
2
Properties=species:S:1:pos:R:3:forces:R:3 energy=50.44544116598418 pbc="F F F"
Rb       0.00000000       0.00000000       0.00000000       0.00000000       0.00000000    -329.85525513
Rb       0.00000000       0.00000000       0.63636364       0.00000000       0.00000000     329.85525513
2
Properties=species:S:1:pos:R:3:forces:R:3 energy=35.13379566292341 pbc="F F F"
Rb       0.00000000       0.00000000       0.00000000       0.00000000       0.00000000    -196.77247620
Rb       0.00000000       0.00000000       0.69595960       0.00000000       0.00000000     196.77247620
2
Properties=species:S:1:pos:R:3:forces:R:3 energy=25.86655896283215 pbc="F F F"
Rb       0.00000000       0.00000000       0.00000000       0.00000000       0.00000000    -121.11740875
Rb       0.00000000       0.00000000       0.75555556       0.00000000       0.00000000     121.11740875
2
Properties=species:S:1:pos:R:3:forces:R:3 energy=20.081593460366722 pbc="F F F"
Rb       0.00000000       0.00000000       0.00000000       0.00000000       0.00000000     -76.85871887
Rb       0.00000000       0.00000000       0.81515152       0.00000000       0.00000000      76.85871887
2
Properties=species:S:1:pos:R:3:forces:R:3 energy=16.357108082034788 pbc="F F F"
Rb       0.00000000       0.00000000       0.00000000       0.00000000       0.00000000     -50.34067154
Rb       0.00000000       0.00000000       0.87474747       0.00000000       0.00000000      50.34067154
2
Properties=species:S:1:pos:R:3:forces:R:3 energy=13.877745619584397 pbc="F F F"
Rb       0.00000000       0.00000000       0.00000000       0.00000000       0.00000000     -34.17773438
Rb       0.00000000       0.00000000       0.93434343       0.00000000       0.00000000      34.17773438
2
Properties=species:S:1:pos:R:3:forces:R:3 energy=12.160596875191597 pbc="F F F"
Rb       0.00000000       0.00000000       0.00000000       0.00000000       0.00000000     -24.25260544
Rb       0.00000000       0.00000000       0.99393939       0.00000000       0.00000000      24.25260544
2
Properties=species:S:1:pos:R:3:forces:R:3 energy=10.910908774210395 pbc="F F F"
Rb       0.00000000       0.00000000       0.00000000       0.00000000       0.00000000     -18.18976784
Rb       0.00000000       0.00000000       1.05353535       0.00000000       0.00000000      18.18976784
2
Properties=species:S:1:pos:R:3:forces:R:3 energy=9.94468512399882 pbc="F F F"
Rb       0.00000000       0.00000000       0.00000000       0.00000000       0.00000000     -14.55069160
Rb       0.00000000       0.00000000       1.11313131       0.00000000       0.00000000      14.55069160
2
Properties=species:S:1:pos:R:3:forces:R:3 energy=9.147279966610096 pbc="F F F"
Rb       0.00000000       0.00000000       0.00000000       0.00000000       0.00000000     -12.39432430
Rb       0.00000000       0.00000000       1.17272727       0.00000000       0.00000000      12.39432430
2
Properties=species:S:1:pos:R:3:forces:R:3 energy=8.45136580899022 pbc="F F F"
Rb       0.00000000       0.00000000       0.00000000       0.00000000       0.00000000     -11.05113697
Rb       0.00000000       0.00000000       1.23232323       0.00000000       0.00000000      11.05113697
2
Properties=species:S:1:pos:R:3:forces:R:3 energy=7.822567943577128 pbc="F F F"
Rb       0.00000000       0.00000000       0.00000000       0.00000000       0.00000000     -10.09978962
Rb       0.00000000       0.00000000       1.29191919       0.00000000       0.00000000      10.09978962
2
Properties=species:S:1:pos:R:3:forces:R:3 energy=7.241453833582126 pbc="F F F"
Rb       0.00000000       0.00000000       0.00000000       0.00000000       0.00000000      -9.45808220
Rb       0.00000000       0.00000000       1.35151515       0.00000000       0.00000000       9.45808220
2
Properties=species:S:1:pos:R:3:forces:R:3 energy=6.690038618244911 pbc="F F F"
Rb       0.00000000       0.00000000       0.00000000       0.00000000       0.00000000      -9.06129646
Rb       0.00000000       0.00000000       1.41111111       0.00000000       0.00000000       9.06129646
2
Properties=species:S:1:pos:R:3:forces:R:3 energy=6.164033156830911 pbc="F F F"
Rb       0.00000000       0.00000000       0.00000000       0.00000000       0.00000000      -8.54404449
Rb       0.00000000       0.00000000       1.47070707       0.00000000       0.00000000       8.54404449
2
Properties=species:S:1:pos:R:3:forces:R:3 energy=5.677404976049501 pbc="F F F"
Rb       0.00000000       0.00000000       0.00000000       0.00000000       0.00000000      -7.75012207
Rb       0.00000000       0.00000000       1.53030303       0.00000000       0.00000000       7.75012207
2
Properties=species:S:1:pos:R:3:forces:R:3 energy=5.242092658917991 pbc="F F F"
Rb       0.00000000       0.00000000       0.00000000       0.00000000       0.00000000      -6.86673069
Rb       0.00000000       0.00000000       1.58989899       0.00000000       0.00000000       6.86673069
2
Properties=species:S:1:pos:R:3:forces:R:3 energy=4.8553625138475125 pbc="F F F"
Rb       0.00000000       0.00000000       0.00000000       0.00000000       0.00000000      -6.16006994
Rb       0.00000000       0.00000000       1.64949495       0.00000000       0.00000000       6.16006994
2
Properties=species:S:1:pos:R:3:forces:R:3 energy=4.50103594556868 pbc="F F F"
Rb       0.00000000       0.00000000       0.00000000       0.00000000       0.00000000      -5.78911781
Rb       0.00000000       0.00000000       1.70909091       0.00000000       0.00000000       5.78911781
2
Properties=species:S:1:pos:R:3:forces:R:3 energy=4.159990850954077 pbc="F F F"
Rb       0.00000000       0.00000000       0.00000000       0.00000000       0.00000000      -5.67881203
Rb       0.00000000       0.00000000       1.76868687       0.00000000       0.00000000       5.67881203
2
Properties=species:S:1:pos:R:3:forces:R:3 energy=3.824964305419375 pbc="F F F"
Rb       0.00000000       0.00000000       0.00000000       0.00000000       0.00000000      -5.53130245
Rb       0.00000000       0.00000000       1.82828283       0.00000000       0.00000000       5.53130245
2
Properties=species:S:1:pos:R:3:forces:R:3 energy=3.505513103047948 pbc="F F F"
Rb       0.00000000       0.00000000       0.00000000       0.00000000       0.00000000      -5.15988779
Rb       0.00000000       0.00000000       1.88787879       0.00000000       0.00000000       5.15988779
2
Properties=species:S:1:pos:R:3:forces:R:3 energy=3.210245613567236 pbc="F F F"
Rb       0.00000000       0.00000000       0.00000000       0.00000000       0.00000000      -4.76977825
Rb       0.00000000       0.00000000       1.94747475       0.00000000       0.00000000       4.76977825
2
Properties=species:S:1:pos:R:3:forces:R:3 energy=2.9340041516142015 pbc="F F F"
Rb       0.00000000       0.00000000       0.00000000       0.00000000       0.00000000      -4.51839542
Rb       0.00000000       0.00000000       2.00707071       0.00000000       0.00000000       4.51839542
2
Properties=species:S:1:pos:R:3:forces:R:3 energy=2.6710054357294433 pbc="F F F"
Rb       0.00000000       0.00000000       0.00000000       0.00000000       0.00000000      -4.30564451
Rb       0.00000000       0.00000000       2.06666667       0.00000000       0.00000000       4.30564451
2
Properties=species:S:1:pos:R:3:forces:R:3 energy=2.4209188141897915 pbc="F F F"
Rb       0.00000000       0.00000000       0.00000000       0.00000000       0.00000000      -4.09158993
Rb       0.00000000       0.00000000       2.12626263       0.00000000       0.00000000       4.09158993
2
Properties=species:S:1:pos:R:3:forces:R:3 energy=2.1819015893951463 pbc="F F F"
Rb       0.00000000       0.00000000       0.00000000       0.00000000       0.00000000      -3.94755411
Rb       0.00000000       0.00000000       2.18585859       0.00000000       0.00000000       3.94755411
2
Properties=species:S:1:pos:R:3:forces:R:3 energy=1.9480941938603502 pbc="F F F"
Rb       0.00000000       0.00000000       0.00000000       0.00000000       0.00000000      -3.91637683
Rb       0.00000000       0.00000000       2.24545455       0.00000000       0.00000000       3.91637683
2
Properties=species:S:1:pos:R:3:forces:R:3 energy=1.7136966663289317 pbc="F F F"
Rb       0.00000000       0.00000000       0.00000000       0.00000000       0.00000000      -3.95450377
Rb       0.00000000       0.00000000       2.30505051       0.00000000       0.00000000       3.95450377
2
Properties=species:S:1:pos:R:3:forces:R:3 energy=1.4770387032565038 pbc="F F F"
Rb       0.00000000       0.00000000       0.00000000       0.00000000       0.00000000      -3.97934890
Rb       0.00000000       0.00000000       2.36464646       0.00000000       0.00000000       3.97934890
2
Properties=species:S:1:pos:R:3:forces:R:3 energy=1.2407641868714336 pbc="F F F"
Rb       0.00000000       0.00000000       0.00000000       0.00000000       0.00000000      -3.93688726
Rb       0.00000000       0.00000000       2.42424242       0.00000000       0.00000000       3.93688726
2
Properties=species:S:1:pos:R:3:forces:R:3 energy=1.0092643770878789 pbc="F F F"
Rb       0.00000000       0.00000000       0.00000000       0.00000000       0.00000000      -3.82101727
Rb       0.00000000       0.00000000       2.48383838       0.00000000       0.00000000       3.82101727
2
Properties=species:S:1:pos:R:3:forces:R:3 energy=0.7864586501829545 pbc="F F F"
Rb       0.00000000       0.00000000       0.00000000       0.00000000       0.00000000      -3.64824820
Rb       0.00000000       0.00000000       2.54343434       0.00000000       0.00000000       3.64824820
2
Properties=species:S:1:pos:R:3:forces:R:3 energy=0.5752575754048634 pbc="F F F"
Rb       0.00000000       0.00000000       0.00000000       0.00000000       0.00000000      -3.43334508
Rb       0.00000000       0.00000000       2.60303030       0.00000000       0.00000000       3.43334508
2
Properties=species:S:1:pos:R:3:forces:R:3 energy=0.37788640205138074 pbc="F F F"
Rb       0.00000000       0.00000000       0.00000000       0.00000000       0.00000000      -3.18538952
Rb       0.00000000       0.00000000       2.66262626       0.00000000       0.00000000       3.18538952
2
Properties=species:S:1:pos:R:3:forces:R:3 energy=0.19608222213130422 pbc="F F F"
Rb       0.00000000       0.00000000       0.00000000       0.00000000       0.00000000      -2.91237211
Rb       0.00000000       0.00000000       2.72222222       0.00000000       0.00000000       2.91237211
2
Properties=species:S:1:pos:R:3:forces:R:3 energy=0.031073464782740617 pbc="F F F"
Rb       0.00000000       0.00000000       0.00000000       0.00000000       0.00000000      -2.62335491
Rb       0.00000000       0.00000000       2.78181818       0.00000000       0.00000000       2.62335491
2
Properties=species:S:1:pos:R:3:forces:R:3 energy=-0.11646581256988169 pbc="F F F"
Rb       0.00000000       0.00000000       0.00000000       0.00000000       0.00000000      -2.32753873
Rb       0.00000000       0.00000000       2.84141414       0.00000000       0.00000000       2.32753873
2
Properties=species:S:1:pos:R:3:forces:R:3 energy=-0.24637739773252082 pbc="F F F"
Rb       0.00000000       0.00000000       0.00000000       0.00000000       0.00000000      -2.03302431
Rb       0.00000000       0.00000000       2.90101010       0.00000000       0.00000000       2.03302431
2
Properties=species:S:1:pos:R:3:forces:R:3 energy=-0.3589476505495816 pbc="F F F"
Rb       0.00000000       0.00000000       0.00000000       0.00000000       0.00000000      -1.74661446
Rb       0.00000000       0.00000000       2.96060606       0.00000000       0.00000000       1.74661446
2
Properties=species:S:1:pos:R:3:forces:R:3 energy=-0.4548400935104848 pbc="F F F"
Rb       0.00000000       0.00000000       0.00000000       0.00000000       0.00000000      -1.47432315
Rb       0.00000000       0.00000000       3.02020202       0.00000000       0.00000000       1.47432315
2
Properties=species:S:1:pos:R:3:forces:R:3 energy=-0.535065253091334 pbc="F F F"
Rb       0.00000000       0.00000000       0.00000000       0.00000000       0.00000000      -1.22168469
Rb       0.00000000       0.00000000       3.07979798       0.00000000       0.00000000       1.22168469
2
Properties=species:S:1:pos:R:3:forces:R:3 energy=-0.6009458287595993 pbc="F F F"
Rb       0.00000000       0.00000000       0.00000000       0.00000000       0.00000000      -0.99370235
Rb       0.00000000       0.00000000       3.13939394       0.00000000       0.00000000       0.99370235
2
Properties=species:S:1:pos:R:3:forces:R:3 energy=-0.6540791280846977 pbc="F F F"
Rb       0.00000000       0.00000000       0.00000000       0.00000000       0.00000000      -0.79449910
Rb       0.00000000       0.00000000       3.19898990       0.00000000       0.00000000       0.79449910
2
Properties=species:S:1:pos:R:3:forces:R:3 energy=-0.6962729587747148 pbc="F F F"
Rb       0.00000000       0.00000000       0.00000000       0.00000000       0.00000000      -0.62688649
Rb       0.00000000       0.00000000       3.25858586       0.00000000       0.00000000       0.62688649
2
Properties=species:S:1:pos:R:3:forces:R:3 energy=-0.7294480244866739 pbc="F F F"
Rb       0.00000000       0.00000000       0.00000000       0.00000000       0.00000000      -0.49182889
Rb       0.00000000       0.00000000       3.31818182       0.00000000       0.00000000       0.49182889
2
Properties=species:S:1:pos:R:3:forces:R:3 energy=-0.755516303424771 pbc="F F F"
Rb       0.00000000       0.00000000       0.00000000       0.00000000       0.00000000      -0.38798356
Rb       0.00000000       0.00000000       3.37777778       0.00000000       0.00000000       0.38798356
2
Properties=species:S:1:pos:R:3:forces:R:3 energy=-0.7762398180104139 pbc="F F F"
Rb       0.00000000       0.00000000       0.00000000       0.00000000       0.00000000      -0.31164852
Rb       0.00000000       0.00000000       3.43737374       0.00000000       0.00000000       0.31164852
2
Properties=species:S:1:pos:R:3:forces:R:3 energy=-0.793101531805614 pbc="F F F"
Rb       0.00000000       0.00000000       0.00000000       0.00000000       0.00000000      -0.25739014
Rb       0.00000000       0.00000000       3.49696970       0.00000000       0.00000000       0.25739014
2
Properties=species:S:1:pos:R:3:forces:R:3 energy=-0.8072384509267944 pbc="F F F"
Rb       0.00000000       0.00000000       0.00000000       0.00000000       0.00000000      -0.21926330
Rb       0.00000000       0.00000000       3.55656566       0.00000000       0.00000000       0.21926330
2
Properties=species:S:1:pos:R:3:forces:R:3 energy=-0.819452516439648 pbc="F F F"
Rb       0.00000000       0.00000000       0.00000000       0.00000000       0.00000000      -0.19210199
Rb       0.00000000       0.00000000       3.61616162       0.00000000       0.00000000       0.19210199
2
Properties=species:S:1:pos:R:3:forces:R:3 energy=-0.8302799435679448 pbc="F F F"
Rb       0.00000000       0.00000000       0.00000000       0.00000000       0.00000000      -0.17227140
Rb       0.00000000       0.00000000       3.67575758       0.00000000       0.00000000       0.17227140
2
Properties=species:S:1:pos:R:3:forces:R:3 energy=-0.8400859730718567 pbc="F F F"
Rb       0.00000000       0.00000000       0.00000000       0.00000000       0.00000000      -0.15752621
Rb       0.00000000       0.00000000       3.73535354       0.00000000       0.00000000       0.15752621
2
Properties=species:S:1:pos:R:3:forces:R:3 energy=-0.8491239416188171 pbc="F F F"
Rb       0.00000000       0.00000000       0.00000000       0.00000000       0.00000000      -0.14618796
Rb       0.00000000       0.00000000       3.79494949       0.00000000       0.00000000       0.14618796
2
Properties=species:S:1:pos:R:3:forces:R:3 energy=-0.857540508569304 pbc="F F F"
Rb       0.00000000       0.00000000       0.00000000       0.00000000       0.00000000      -0.13632698
Rb       0.00000000       0.00000000       3.85454545       0.00000000       0.00000000       0.13632698
2
Properties=species:S:1:pos:R:3:forces:R:3 energy=-0.8653554949357474 pbc="F F F"
Rb       0.00000000       0.00000000       0.00000000       0.00000000       0.00000000      -0.12559898
Rb       0.00000000       0.00000000       3.91414141       0.00000000       0.00000000       0.12559898
2
Properties=species:S:1:pos:R:3:forces:R:3 energy=-0.8724505675875297 pbc="F F F"
Rb       0.00000000       0.00000000       0.00000000       0.00000000       0.00000000      -0.11187103
Rb       0.00000000       0.00000000       3.97373737       0.00000000       0.00000000       0.11187103
2
Properties=species:S:1:pos:R:3:forces:R:3 energy=-0.8786082646222193 pbc="F F F"
Rb       0.00000000       0.00000000       0.00000000       0.00000000       0.00000000      -0.09412183
Rb       0.00000000       0.00000000       4.03333333       0.00000000       0.00000000       0.09412183
2
Properties=species:S:1:pos:R:3:forces:R:3 energy=-0.8835983996777987 pbc="F F F"
Rb       0.00000000       0.00000000       0.00000000       0.00000000       0.00000000      -0.07286588
Rb       0.00000000       0.00000000       4.09292929       0.00000000       0.00000000       0.07286588
2
Properties=species:S:1:pos:R:3:forces:R:3 energy=-0.8872573649566482 pbc="F F F"
Rb       0.00000000       0.00000000       0.00000000       0.00000000       0.00000000      -0.04977819
Rb       0.00000000       0.00000000       4.15252525       0.00000000       0.00000000       0.04977819
2
Properties=species:S:1:pos:R:3:forces:R:3 energy=-0.8895354679049919 pbc="F F F"
Rb       0.00000000       0.00000000       0.00000000       0.00000000       0.00000000      -0.02685304
Rb       0.00000000       0.00000000       4.21212121       0.00000000       0.00000000       0.02685304
2
Properties=species:S:1:pos:R:3:forces:R:3 energy=-0.8904918846651098 pbc="F F F"
Rb       0.00000000       0.00000000       0.00000000       0.00000000       0.00000000      -0.00563411
Rb       0.00000000       0.00000000       4.27171717       0.00000000       0.00000000       0.00563411
2
Properties=species:S:1:pos:R:3:forces:R:3 energy=-0.8902558698831019 pbc="F F F"
Rb       0.00000000       0.00000000       0.00000000       0.00000000       0.00000000       0.01314460
Rb       0.00000000       0.00000000       4.33131313       0.00000000       0.00000000      -0.01314460
2
Properties=species:S:1:pos:R:3:forces:R:3 energy=-0.8889736790810396 pbc="F F F"
Rb       0.00000000       0.00000000       0.00000000       0.00000000       0.00000000       0.02950375
Rb       0.00000000       0.00000000       4.39090909       0.00000000       0.00000000      -0.02950375
2
Properties=species:S:1:pos:R:3:forces:R:3 energy=-0.8867781162117119 pbc="F F F"
Rb       0.00000000       0.00000000       0.00000000       0.00000000       0.00000000       0.04391516
Rb       0.00000000       0.00000000       4.45050505       0.00000000       0.00000000      -0.04391516
2
Properties=species:S:1:pos:R:3:forces:R:3 energy=-0.8837671773976512 pbc="F F F"
Rb       0.00000000       0.00000000       0.00000000       0.00000000       0.00000000       0.05693416
Rb       0.00000000       0.00000000       4.51010101       0.00000000       0.00000000      -0.05693416
2
Properties=species:S:1:pos:R:3:forces:R:3 energy=-0.8800132334476057 pbc="F F F"
Rb       0.00000000       0.00000000       0.00000000       0.00000000       0.00000000       0.06886266
Rb       0.00000000       0.00000000       4.56969697       0.00000000       0.00000000      -0.06886266
2
Properties=species:S:1:pos:R:3:forces:R:3 energy=-0.8755842707189386 pbc="F F F"
Rb       0.00000000       0.00000000       0.00000000       0.00000000       0.00000000       0.07950580
Rb       0.00000000       0.00000000       4.62929293       0.00000000       0.00000000      -0.07950580
2
Properties=species:S:1:pos:R:3:forces:R:3 energy=-0.8705771839185548 pbc="F F F"
Rb       0.00000000       0.00000000       0.00000000       0.00000000       0.00000000       0.08809230
Rb       0.00000000       0.00000000       4.68888889       0.00000000       0.00000000      -0.08809230
2
Properties=species:S:1:pos:R:3:forces:R:3 energy=-0.8651486631599253 pbc="F F F"
Rb       0.00000000       0.00000000       0.00000000       0.00000000       0.00000000       0.09344350
Rb       0.00000000       0.00000000       4.74848485       0.00000000       0.00000000      -0.09344350
2
Properties=species:S:1:pos:R:3:forces:R:3 energy=-0.8595246805758981 pbc="F F F"
Rb       0.00000000       0.00000000       0.00000000       0.00000000       0.00000000       0.09458342
Rb       0.00000000       0.00000000       4.80808081       0.00000000       0.00000000      -0.09458342
2
Properties=species:S:1:pos:R:3:forces:R:3 energy=-0.8539490838897212 pbc="F F F"
Rb       0.00000000       0.00000000       0.00000000       0.00000000       0.00000000       0.09211651
Rb       0.00000000       0.00000000       4.86767677       0.00000000       0.00000000      -0.09211651
2
Properties=species:S:1:pos:R:3:forces:R:3 energy=-0.8485346836374381 pbc="F F F"
Rb       0.00000000       0.00000000       0.00000000       0.00000000       0.00000000       0.09030870
Rb       0.00000000       0.00000000       4.92727273       0.00000000       0.00000000      -0.09030870
2
Properties=species:S:1:pos:R:3:forces:R:3 energy=-0.8429886413118777 pbc="F F F"
Rb       0.00000000       0.00000000       0.00000000       0.00000000       0.00000000       0.09849201
Rb       0.00000000       0.00000000       4.98686869       0.00000000       0.00000000      -0.09849201
2
Properties=species:S:1:pos:R:3:forces:R:3 energy=-0.836358236802526 pbc="F F F"
Rb       0.00000000       0.00000000       0.00000000       0.00000000       0.00000000       0.12859911
Rb       0.00000000       0.00000000       5.04646465       0.00000000       0.00000000      -0.12859911
2
Properties=species:S:1:pos:R:3:forces:R:3 energy=-0.8270817256274265 pbc="F F F"
Rb       0.00000000       0.00000000       0.00000000       0.00000000       0.00000000       0.18739870
Rb       0.00000000       0.00000000       5.10606061       0.00000000       0.00000000      -0.18739870
2
Properties=species:S:1:pos:R:3:forces:R:3 energy=-0.8135787435415227 pbc="F F F"
Rb       0.00000000       0.00000000       0.00000000       0.00000000       0.00000000       0.26770177
Rb       0.00000000       0.00000000       5.16565657       0.00000000       0.00000000      -0.26770177
2
Properties=species:S:1:pos:R:3:forces:R:3 energy=-0.7951991953190982 pbc="F F F"
Rb       0.00000000       0.00000000       0.00000000       0.00000000       0.00000000       0.34642270
Rb       0.00000000       0.00000000       5.22525253       0.00000000       0.00000000      -0.34642270
2
Properties=species:S:1:pos:R:3:forces:R:3 energy=-0.7728704157205721 pbc="F F F"
Rb       0.00000000       0.00000000       0.00000000       0.00000000       0.00000000       0.39686921
Rb       0.00000000       0.00000000       5.28484848       0.00000000       0.00000000      -0.39686921
2
Properties=species:S:1:pos:R:3:forces:R:3 energy=-0.7484699615994741 pbc="F F F"
Rb       0.00000000       0.00000000       0.00000000       0.00000000       0.00000000       0.42053425
Rb       0.00000000       0.00000000       5.34444444       0.00000000       0.00000000      -0.42053425
2
Properties=species:S:1:pos:R:3:forces:R:3 energy=-0.7222407615824918 pbc="F F F"
Rb       0.00000000       0.00000000       0.00000000       0.00000000       0.00000000       0.46895042
Rb       0.00000000       0.00000000       5.40404040       0.00000000       0.00000000      -0.46895042
2
Properties=species:S:1:pos:R:3:forces:R:3 energy=-0.6914960585592874 pbc="F F F"
Rb       0.00000000       0.00000000       0.00000000       0.00000000       0.00000000       0.56589675
Rb       0.00000000       0.00000000       5.46363636       0.00000000       0.00000000      -0.56589675
2
Properties=species:S:1:pos:R:3:forces:R:3 energy=-0.6556504219108233 pbc="F F F"
Rb       0.00000000       0.00000000       0.00000000       0.00000000       0.00000000       0.62190276
Rb       0.00000000       0.00000000       5.52323232       0.00000000       0.00000000      -0.62190276
2
Properties=species:S:1:pos:R:3:forces:R:3 energy=-0.6193912145591047 pbc="F F F"
Rb       0.00000000       0.00000000       0.00000000       0.00000000       0.00000000       0.58273959
Rb       0.00000000       0.00000000       5.58282828       0.00000000       0.00000000      -0.58273959
2
Properties=species:S:1:pos:R:3:forces:R:3 energy=-0.5863643094163662 pbc="F F F"
Rb       0.00000000       0.00000000       0.00000000       0.00000000       0.00000000       0.53612357
Rb       0.00000000       0.00000000       5.64242424       0.00000000       0.00000000      -0.53612357
2
Properties=species:S:1:pos:R:3:forces:R:3 energy=-0.5531854301032025 pbc="F F F"
Rb       0.00000000       0.00000000       0.00000000       0.00000000       0.00000000       0.59836608
Rb       0.00000000       0.00000000       5.70202020       0.00000000       0.00000000      -0.59836608
2
Properties=species:S:1:pos:R:3:forces:R:3 energy=-0.5138167032160841 pbc="F F F"
Rb       0.00000000       0.00000000       0.00000000       0.00000000       0.00000000       0.71576726
Rb       0.00000000       0.00000000       5.76161616       0.00000000       0.00000000      -0.71576726
2
Properties=species:S:1:pos:R:3:forces:R:3 energy=-0.47128261019442436 pbc="F F F"
Rb       0.00000000       0.00000000       0.00000000       0.00000000       0.00000000       0.66956908
Rb       0.00000000       0.00000000       5.82121212       0.00000000       0.00000000      -0.66956908
2
Properties=species:S:1:pos:R:3:forces:R:3 energy=-0.4383728690717295 pbc="F F F"
Rb       0.00000000       0.00000000       0.00000000       0.00000000       0.00000000       0.41738024
Rb       0.00000000       0.00000000       5.88080808       0.00000000       0.00000000      -0.41738024
2
Properties=species:S:1:pos:R:3:forces:R:3 energy=-0.42168625832296924 pbc="F F F"
Rb       0.00000000       0.00000000       0.00000000       0.00000000       0.00000000       0.15245971
Rb       0.00000000       0.00000000       5.94040404       0.00000000       0.00000000      -0.15245971
2
Properties=species:S:1:pos:R:3:forces:R:3 energy=-0.4168522434502914 pbc="F F F"
Rb       0.00000000       0.00000000       0.00000000       0.00000000       0.00000000       0.04632730
Rb       0.00000000       0.00000000       6.00000000       0.00000000       0.00000000      -0.04632730
