2
Properties=species:S:1:pos:R:3:forces:R:3 energy=5647.588511379012 pbc="F F F"
Rb       0.00000000       0.00000000       0.00000000       0.00000000       0.00000000  -91175.69531250
Rb       0.00000000       0.00000000       0.18000000       0.00000000       0.00000000   91175.69531250
2
Properties=species:S:1:pos:R:3:forces:R:3 energy=2370.614146144637 pbc="F F F"
Rb       0.00000000       0.00000000       0.00000000       0.00000000       0.00000000  -32256.66406250
Rb       0.00000000       0.00000000       0.23878788       0.00000000       0.00000000   32256.66406250
2
Properties=species:S:1:pos:R:3:forces:R:3 energy=1119.9976910665118 pbc="F F F"
Rb       0.00000000       0.00000000       0.00000000       0.00000000       0.00000000  -13448.32324219
Rb       0.00000000       0.00000000       0.29757576       0.00000000       0.00000000   13448.32324219
2
Properties=species:S:1:pos:R:3:forces:R:3 energy=572.8119610860431 pbc="F F F"
Rb       0.00000000       0.00000000       0.00000000       0.00000000       0.00000000   -6216.50683594
Rb       0.00000000       0.00000000       0.35636364       0.00000000       0.00000000    6216.50683594
2
Properties=species:S:1:pos:R:3:forces:R:3 energy=311.46531191612127 pbc="F F F"
Rb       0.00000000       0.00000000       0.00000000       0.00000000       0.00000000   -3081.95263672
Rb       0.00000000       0.00000000       0.41515152       0.00000000       0.00000000    3081.95263672
2
Properties=species:S:1:pos:R:3:forces:R:3 energy=178.71056643430674 pbc="F F F"
Rb       0.00000000       0.00000000       0.00000000       0.00000000       0.00000000   -1610.11071777
Rb       0.00000000       0.00000000       0.47393939       0.00000000       0.00000000    1610.11071777
2
Properties=species:S:1:pos:R:3:forces:R:3 energy=107.96631136838877 pbc="F F F"
Rb       0.00000000       0.00000000       0.00000000       0.00000000       0.00000000    -878.12908936
Rb       0.00000000       0.00000000       0.53272727       0.00000000       0.00000000     878.12908936
2
Properties=species:S:1:pos:R:3:forces:R:3 energy=68.70839968942768 pbc="F F F"
Rb       0.00000000       0.00000000       0.00000000       0.00000000       0.00000000    -497.31109619
Rb       0.00000000       0.00000000       0.59151515       0.00000000       0.00000000     497.31109619
2
Properties=species:S:1:pos:R:3:forces:R:3 energy=46.121172824919725 pbc="F F F"
Rb       0.00000000       0.00000000       0.00000000       0.00000000       0.00000000    -291.46673584
Rb       0.00000000       0.00000000       0.65030303       0.00000000       0.00000000     291.46673584
2
Properties=species:S:1:pos:R:3:forces:R:3 energy=32.686755106646 pbc="F F F"
Rb       0.00000000       0.00000000       0.00000000       0.00000000       0.00000000    -176.35177612
Rb       0.00000000       0.00000000       0.70909091       0.00000000       0.00000000     176.35177612
2
Properties=species:S:1:pos:R:3:forces:R:3 energy=24.44392865435747 pbc="F F F"
Rb       0.00000000       0.00000000       0.00000000       0.00000000       0.00000000    -109.97094727
Rb       0.00000000       0.00000000       0.76787879       0.00000000       0.00000000     109.97094727
2
Properties=species:S:1:pos:R:3:forces:R:3 energy=19.23292250406189 pbc="F F F"
Rb       0.00000000       0.00000000       0.00000000       0.00000000       0.00000000     -70.64445496
Rb       0.00000000       0.00000000       0.82666667       0.00000000       0.00000000      70.64445496
2
Properties=species:S:1:pos:R:3:forces:R:3 energy=15.837223975705541 pbc="F F F"
Rb       0.00000000       0.00000000       0.00000000       0.00000000       0.00000000     -46.82464218
Rb       0.00000000       0.00000000       0.88545455       0.00000000       0.00000000      46.82464218
2
Properties=species:S:1:pos:R:3:forces:R:3 energy=13.549454685005076 pbc="F F F"
Rb       0.00000000       0.00000000       0.00000000       0.00000000       0.00000000     -32.17701721
Rb       0.00000000       0.00000000       0.94424242       0.00000000       0.00000000      32.17701721
2
Properties=species:S:1:pos:R:3:forces:R:3 energy=11.945311580318746 pbc="F F F"
Rb       0.00000000       0.00000000       0.00000000       0.00000000       0.00000000     -23.12179756
Rb       0.00000000       0.00000000       1.00303030       0.00000000       0.00000000      23.12179756
2
Properties=species:S:1:pos:R:3:forces:R:3 energy=10.76286705697126 pbc="F F F"
Rb       0.00000000       0.00000000       0.00000000       0.00000000       0.00000000     -17.56419945
Rb       0.00000000       0.00000000       1.06181818       0.00000000       0.00000000      17.56419945
2
Properties=species:S:1:pos:R:3:forces:R:3 energy=9.837189825579923 pbc="F F F"
Rb       0.00000000       0.00000000       0.00000000       0.00000000       0.00000000     -14.21477509
Rb       0.00000000       0.00000000       1.12060606       0.00000000       0.00000000      14.21477509
2
Properties=species:S:1:pos:R:3:forces:R:3 energy=9.06526017020536 pbc="F F F"
Rb       0.00000000       0.00000000       0.00000000       0.00000000       0.00000000     -12.21394444
Rb       0.00000000       0.00000000       1.17939394       0.00000000       0.00000000      12.21394444
2
Properties=species:S:1:pos:R:3:forces:R:3 energy=8.386940353216684 pbc="F F F"
Rb       0.00000000       0.00000000       0.00000000       0.00000000       0.00000000     -10.94428635
Rb       0.00000000       0.00000000       1.23818182       0.00000000       0.00000000      10.94428635
2
Properties=species:S:1:pos:R:3:forces:R:3 energy=7.7717256726760775 pbc="F F F"
Rb       0.00000000       0.00000000       0.00000000       0.00000000       0.00000000     -10.03248978
Rb       0.00000000       0.00000000       1.29696970       0.00000000       0.00000000      10.03248978
2
Properties=species:S:1:pos:R:3:forces:R:3 energy=7.201396188688156 pbc="F F F"
Rb       0.00000000       0.00000000       0.00000000       0.00000000       0.00000000      -9.42490768
Rb       0.00000000       0.00000000       1.35575758       0.00000000       0.00000000       9.42490768
2
Properties=species:S:1:pos:R:3:forces:R:3 energy=6.6589531413196905 pbc="F F F"
Rb       0.00000000       0.00000000       0.00000000       0.00000000       0.00000000      -9.03831387
Rb       0.00000000       0.00000000       1.41454545       0.00000000       0.00000000       9.03831387
2
Properties=species:S:1:pos:R:3:forces:R:3 energy=6.1416332687423605 pbc="F F F"
Rb       0.00000000       0.00000000       0.00000000       0.00000000       0.00000000      -8.51435661
Rb       0.00000000       0.00000000       1.47333333       0.00000000       0.00000000       8.51435661
2
Properties=species:S:1:pos:R:3:forces:R:3 energy=5.663333522598305 pbc="F F F"
Rb       0.00000000       0.00000000       0.00000000       0.00000000       0.00000000      -7.72308397
Rb       0.00000000       0.00000000       1.53212121       0.00000000       0.00000000       7.72308397
2
Properties=species:S:1:pos:R:3:forces:R:3 energy=5.235163269254539 pbc="F F F"
Rb       0.00000000       0.00000000       0.00000000       0.00000000       0.00000000      -6.85259724
Rb       0.00000000       0.00000000       1.59090909       0.00000000       0.00000000       6.85259724
2
Properties=species:S:1:pos:R:3:forces:R:3 energy=4.854115107841653 pbc="F F F"
Rb       0.00000000       0.00000000       0.00000000       0.00000000       0.00000000      -6.15819788
Rb       0.00000000       0.00000000       1.64969697       0.00000000       0.00000000       6.15819788
2
Properties=species:S:1:pos:R:3:forces:R:3 energy=4.504544982296342 pbc="F F F"
Rb       0.00000000       0.00000000       0.00000000       0.00000000       0.00000000      -5.79120445
Rb       0.00000000       0.00000000       1.70848485       0.00000000       0.00000000       5.79120445
2
Properties=species:S:1:pos:R:3:forces:R:3 energy=4.168022200202759 pbc="F F F"
Rb       0.00000000       0.00000000       0.00000000       0.00000000       0.00000000      -5.68048906
Rb       0.00000000       0.00000000       1.76727273       0.00000000       0.00000000       5.68048906
2
Properties=species:S:1:pos:R:3:forces:R:3 energy=3.837262376136637 pbc="F F F"
Rb       0.00000000       0.00000000       0.00000000       0.00000000       0.00000000      -5.54091978
Rb       0.00000000       0.00000000       1.82606061       0.00000000       0.00000000       5.54091978
2
Properties=species:S:1:pos:R:3:forces:R:3 energy=3.5211781003484384 pbc="F F F"
Rb       0.00000000       0.00000000       0.00000000       0.00000000       0.00000000      -5.18191814
Rb       0.00000000       0.00000000       1.88484848       0.00000000       0.00000000       5.18191814
2
Properties=species:S:1:pos:R:3:forces:R:3 energy=3.228595647643436 pbc="F F F"
Rb       0.00000000       0.00000000       0.00000000       0.00000000       0.00000000      -4.79050970
Rb       0.00000000       0.00000000       1.94363636       0.00000000       0.00000000       4.79050970
2
Properties=species:S:1:pos:R:3:forces:R:3 energy=2.9550368366964084 pbc="F F F"
Rb       0.00000000       0.00000000       0.00000000       0.00000000       0.00000000      -4.53498411
Rb       0.00000000       0.00000000       2.00242424       0.00000000       0.00000000       4.53498411
2
Properties=species:S:1:pos:R:3:forces:R:3 energy=2.6945467135836245 pbc="F F F"
Rb       0.00000000       0.00000000       0.00000000       0.00000000       0.00000000      -4.32576227
Rb       0.00000000       0.00000000       2.06121212       0.00000000       0.00000000       4.32576227
2
Properties=species:S:1:pos:R:3:forces:R:3 energy=2.446608660090215 pbc="F F F"
Rb       0.00000000       0.00000000       0.00000000       0.00000000       0.00000000      -4.11223459
Rb       0.00000000       0.00000000       2.12000000       0.00000000       0.00000000       4.11223459
2
Properties=species:S:1:pos:R:3:forces:R:3 energy=2.2098520474027015 pbc="F F F"
Rb       0.00000000       0.00000000       0.00000000       0.00000000       0.00000000      -3.95875335
Rb       0.00000000       0.00000000       2.17878788       0.00000000       0.00000000       3.95875335
2
Properties=species:S:1:pos:R:3:forces:R:3 energy=1.9789458788579724 pbc="F F F"
Rb       0.00000000       0.00000000       0.00000000       0.00000000       0.00000000      -3.91485047
Rb       0.00000000       0.00000000       2.23757576       0.00000000       0.00000000       3.91485047
2
Properties=species:S:1:pos:R:3:forces:R:3 energy=1.748020813393037 pbc="F F F"
Rb       0.00000000       0.00000000       0.00000000       0.00000000       0.00000000      -3.94787645
Rb       0.00000000       0.00000000       2.29636364       0.00000000       0.00000000       3.94787645
2
Properties=species:S:1:pos:R:3:forces:R:3 energy=1.514821937187997 pbc="F F F"
Rb       0.00000000       0.00000000       0.00000000       0.00000000       0.00000000      -3.97912145
Rb       0.00000000       0.00000000       2.35515152       0.00000000       0.00000000       3.97912145
2
Properties=species:S:1:pos:R:3:forces:R:3 energy=1.2813939881658474 pbc="F F F"
Rb       0.00000000       0.00000000       0.00000000       0.00000000       0.00000000      -3.94978547
Rb       0.00000000       0.00000000       2.41393939       0.00000000       0.00000000       3.94978547
2
Properties=species:S:1:pos:R:3:forces:R:3 energy=1.0518704878371818 pbc="F F F"
Rb       0.00000000       0.00000000       0.00000000       0.00000000       0.00000000      -3.84749126
Rb       0.00000000       0.00000000       2.47272727       0.00000000       0.00000000       3.84749126
2
Properties=species:S:1:pos:R:3:forces:R:3 energy=0.8301716469441429 pbc="F F F"
Rb       0.00000000       0.00000000       0.00000000       0.00000000       0.00000000      -3.68653536
Rb       0.00000000       0.00000000       2.53151515       0.00000000       0.00000000       3.68653536
2
Properties=species:S:1:pos:R:3:forces:R:3 energy=0.6192669789768825 pbc="F F F"
Rb       0.00000000       0.00000000       0.00000000       0.00000000       0.00000000      -3.48227692
Rb       0.00000000       0.00000000       2.59030303       0.00000000       0.00000000       3.48227692
2
Properties=species:S:1:pos:R:3:forces:R:3 energy=0.4214016316810644 pbc="F F F"
Rb       0.00000000       0.00000000       0.00000000       0.00000000       0.00000000      -3.24421000
Rb       0.00000000       0.00000000       2.64909091       0.00000000       0.00000000       3.24421000
2
Properties=species:S:1:pos:R:3:forces:R:3 energy=0.2383411833339558 pbc="F F F"
Rb       0.00000000       0.00000000       0.00000000       0.00000000       0.00000000      -2.97990084
Rb       0.00000000       0.00000000       2.70787879       0.00000000       0.00000000       2.97990084
2
Properties=species:S:1:pos:R:3:forces:R:3 energy=0.07138615647543035 pbc="F F F"
Rb       0.00000000       0.00000000       0.00000000       0.00000000       0.00000000      -2.69782972
Rb       0.00000000       0.00000000       2.76666667       0.00000000       0.00000000       2.69782972
2
Properties=species:S:1:pos:R:3:forces:R:3 energy=-0.07868634454273334 pbc="F F F"
Rb       0.00000000       0.00000000       0.00000000       0.00000000       0.00000000      -2.40694118
Rb       0.00000000       0.00000000       2.82545455       0.00000000       0.00000000       2.40694118
2
Properties=species:S:1:pos:R:3:forces:R:3 energy=-0.2116003217668114 pbc="F F F"
Rb       0.00000000       0.00000000       0.00000000       0.00000000       0.00000000      -2.11534119
Rb       0.00000000       0.00000000       2.88424242       0.00000000       0.00000000       2.11534119
2
Properties=species:S:1:pos:R:3:forces:R:3 energy=-0.3275211667686755 pbc="F F F"
Rb       0.00000000       0.00000000       0.00000000       0.00000000       0.00000000      -1.82987237
Rb       0.00000000       0.00000000       2.94303030       0.00000000       0.00000000       1.82987237
2
Properties=species:S:1:pos:R:3:forces:R:3 energy=-0.4269848534956218 pbc="F F F"
Rb       0.00000000       0.00000000       0.00000000       0.00000000       0.00000000      -1.55647111
Rb       0.00000000       0.00000000       3.00181818       0.00000000       0.00000000       1.55647111
2
Properties=species:S:1:pos:R:3:forces:R:3 energy=-0.5108665126593628 pbc="F F F"
Rb       0.00000000       0.00000000       0.00000000       0.00000000       0.00000000      -1.30057538
Rb       0.00000000       0.00000000       3.06060606       0.00000000       0.00000000       1.30057538
2
Properties=species:S:1:pos:R:3:forces:R:3 energy=-0.5803427026418461 pbc="F F F"
Rb       0.00000000       0.00000000       0.00000000       0.00000000       0.00000000      -1.06718576
Rb       0.00000000       0.00000000       3.11939394       0.00000000       0.00000000       1.06718576
2
Properties=species:S:1:pos:R:3:forces:R:3 energy=-0.6368670587679905 pbc="F F F"
Rb       0.00000000       0.00000000       0.00000000       0.00000000       0.00000000      -0.86057192
Rb       0.00000000       0.00000000       3.17818182       0.00000000       0.00000000       0.86057192
2
Properties=species:S:1:pos:R:3:forces:R:3 energy=-0.6821131841364367 pbc="F F F"
Rb       0.00000000       0.00000000       0.00000000       0.00000000       0.00000000      -0.68392396
Rb       0.00000000       0.00000000       3.23696970       0.00000000       0.00000000       0.68392396
2
Properties=species:S:1:pos:R:3:forces:R:3 energy=-0.7178995087533289 pbc="F F F"
Rb       0.00000000       0.00000000       0.00000000       0.00000000       0.00000000      -0.53885806
Rb       0.00000000       0.00000000       3.29575758       0.00000000       0.00000000       0.53885806
2
Properties=species:S:1:pos:R:3:forces:R:3 energy=-0.7460817925554624 pbc="F F F"
Rb       0.00000000       0.00000000       0.00000000       0.00000000       0.00000000      -0.42494100
Rb       0.00000000       0.00000000       3.35454545       0.00000000       0.00000000       0.42494100
2
Properties=species:S:1:pos:R:3:forces:R:3 energy=-0.7684211607267508 pbc="F F F"
Rb       0.00000000       0.00000000       0.00000000       0.00000000       0.00000000      -0.33945107
Rb       0.00000000       0.00000000       3.41333333       0.00000000       0.00000000       0.33945107
2
Properties=species:S:1:pos:R:3:forces:R:3 energy=-0.7864591381007099 pbc="F F F"
Rb       0.00000000       0.00000000       0.00000000       0.00000000       0.00000000      -0.27771485
Rb       0.00000000       0.00000000       3.47212121       0.00000000       0.00000000       0.27771485
2
Properties=species:S:1:pos:R:3:forces:R:3 energy=-0.8014278940688916 pbc="F F F"
Rb       0.00000000       0.00000000       0.00000000       0.00000000       0.00000000      -0.23406266
Rb       0.00000000       0.00000000       3.53090909       0.00000000       0.00000000       0.23406266
2
Properties=species:S:1:pos:R:3:forces:R:3 energy=-0.8142267836934197 pbc="F F F"
Rb       0.00000000       0.00000000       0.00000000       0.00000000       0.00000000      -0.20308083
Rb       0.00000000       0.00000000       3.58969697       0.00000000       0.00000000       0.20308083
2
Properties=species:S:1:pos:R:3:forces:R:3 energy=-0.825470575784169 pbc="F F F"
Rb       0.00000000       0.00000000       0.00000000       0.00000000       0.00000000      -0.18060395
Rb       0.00000000       0.00000000       3.64848485       0.00000000       0.00000000       0.18060395
2
Properties=species:S:1:pos:R:3:forces:R:3 energy=-0.8355745546602806 pbc="F F F"
Rb       0.00000000       0.00000000       0.00000000       0.00000000       0.00000000      -0.16394821
Rb       0.00000000       0.00000000       3.70727273       0.00000000       0.00000000       0.16394821
2
Properties=species:S:1:pos:R:3:forces:R:3 energy=-0.8448270405798968 pbc="F F F"
Rb       0.00000000       0.00000000       0.00000000       0.00000000       0.00000000      -0.15136781
Rb       0.00000000       0.00000000       3.76606061       0.00000000       0.00000000       0.15136781
2
Properties=species:S:1:pos:R:3:forces:R:3 energy=-0.8534194088903486 pbc="F F F"
Rb       0.00000000       0.00000000       0.00000000       0.00000000       0.00000000      -0.14119735
Rb       0.00000000       0.00000000       3.82484848       0.00000000       0.00000000       0.14119735
2
Properties=species:S:1:pos:R:3:forces:R:3 energy=-0.8614347910722021 pbc="F F F"
Rb       0.00000000       0.00000000       0.00000000       0.00000000       0.00000000      -0.13134673
Rb       0.00000000       0.00000000       3.88363636       0.00000000       0.00000000       0.13134673
2
Properties=species:S:1:pos:R:3:forces:R:3 energy=-0.8688242651435455 pbc="F F F"
Rb       0.00000000       0.00000000       0.00000000       0.00000000       0.00000000      -0.11955496
Rb       0.00000000       0.00000000       3.94242424       0.00000000       0.00000000       0.11955496
2
Properties=species:S:1:pos:R:3:forces:R:3 energy=-0.8754207136159285 pbc="F F F"
Rb       0.00000000       0.00000000       0.00000000       0.00000000       0.00000000      -0.10419197
Rb       0.00000000       0.00000000       4.00121212       0.00000000       0.00000000       0.10419197
2
Properties=species:S:1:pos:R:3:forces:R:3 energy=-0.8809980722631973 pbc="F F F"
Rb       0.00000000       0.00000000       0.00000000       0.00000000       0.00000000      -0.08496311
Rb       0.00000000       0.00000000       4.06000000       0.00000000       0.00000000       0.08496311
2
Properties=species:S:1:pos:R:3:forces:R:3 energy=-0.885354909840727 pbc="F F F"
Rb       0.00000000       0.00000000       0.00000000       0.00000000       0.00000000      -0.06295309
Rb       0.00000000       0.00000000       4.11878788       0.00000000       0.00000000       0.06295309
2
Properties=species:S:1:pos:R:3:forces:R:3 energy=-0.8883815048216482 pbc="F F F"
Rb       0.00000000       0.00000000       0.00000000       0.00000000       0.00000000      -0.04001622
Rb       0.00000000       0.00000000       4.17757576       0.00000000       0.00000000       0.04001622
2
Properties=species:S:1:pos:R:3:forces:R:3 energy=-0.8900778007382165 pbc="F F F"
Rb       0.00000000       0.00000000       0.00000000       0.00000000       0.00000000      -0.01795477
Rb       0.00000000       0.00000000       4.23636364       0.00000000       0.00000000       0.01795477
2
Properties=species:S:1:pos:R:3:forces:R:3 energy=-0.8905332354774029 pbc="F F F"
Rb       0.00000000       0.00000000       0.00000000       0.00000000       0.00000000       0.00205469
Rb       0.00000000       0.00000000       4.29515152       0.00000000       0.00000000      -0.00205469
2
Properties=species:S:1:pos:R:3:forces:R:3 energy=-0.8898843074537894 pbc="F F F"
Rb       0.00000000       0.00000000       0.00000000       0.00000000       0.00000000       0.01962125
Rb       0.00000000       0.00000000       4.35393939       0.00000000       0.00000000      -0.01962125
2
Properties=species:S:1:pos:R:3:forces:R:3 energy=-0.8882697780276673 pbc="F F F"
Rb       0.00000000       0.00000000       0.00000000       0.00000000       0.00000000       0.03497449
Rb       0.00000000       0.00000000       4.41272727       0.00000000       0.00000000      -0.03497449
2
Properties=species:S:1:pos:R:3:forces:R:3 energy=-0.8858053834091354 pbc="F F F"
Rb       0.00000000       0.00000000       0.00000000       0.00000000       0.00000000       0.04863998
Rb       0.00000000       0.00000000       4.47151515       0.00000000       0.00000000      -0.04863998
2
Properties=species:S:1:pos:R:3:forces:R:3 energy=-0.8825745017844167 pbc="F F F"
Rb       0.00000000       0.00000000       0.00000000       0.00000000       0.00000000       0.06109872
Rb       0.00000000       0.00000000       4.53030303       0.00000000       0.00000000      -0.06109872
2
Properties=species:S:1:pos:R:3:forces:R:3 energy=-0.8786420411035775 pbc="F F F"
Rb       0.00000000       0.00000000       0.00000000       0.00000000       0.00000000       0.07249328
Rb       0.00000000       0.00000000       4.58909091       0.00000000       0.00000000      -0.07249328
2
Properties=species:S:1:pos:R:3:forces:R:3 energy=-0.8740789592064934 pbc="F F F"
Rb       0.00000000       0.00000000       0.00000000       0.00000000       0.00000000       0.08245520
Rb       0.00000000       0.00000000       4.64787879       0.00000000       0.00000000      -0.08245520
2
Properties=species:S:1:pos:R:3:forces:R:3 energy=-0.8689926079898325 pbc="F F F"
Rb       0.00000000       0.00000000       0.00000000       0.00000000       0.00000000       0.09008448
Rb       0.00000000       0.00000000       4.70666667       0.00000000       0.00000000      -0.09008448
2
Properties=species:S:1:pos:R:3:forces:R:3 energy=-0.8635560007070274 pbc="F F F"
Rb       0.00000000       0.00000000       0.00000000       0.00000000       0.00000000       0.09421515
Rb       0.00000000       0.00000000       4.76545455       0.00000000       0.00000000      -0.09421515
2
Properties=species:S:1:pos:R:3:forces:R:3 energy=-0.8579980202171759 pbc="F F F"
Rb       0.00000000       0.00000000       0.00000000       0.00000000       0.00000000       0.09417897
Rb       0.00000000       0.00000000       4.82424242       0.00000000       0.00000000      -0.09417897
2
Properties=species:S:1:pos:R:3:forces:R:3 energy=-0.8525417304202688 pbc="F F F"
Rb       0.00000000       0.00000000       0.00000000       0.00000000       0.00000000       0.09130101
Rb       0.00000000       0.00000000       4.88303030       0.00000000       0.00000000      -0.09130101
2
Properties=species:S:1:pos:R:3:forces:R:3 energy=-0.8472177182247063 pbc="F F F"
Rb       0.00000000       0.00000000       0.00000000       0.00000000       0.00000000       0.09092830
Rb       0.00000000       0.00000000       4.94181818       0.00000000       0.00000000      -0.09092830
2
Properties=species:S:1:pos:R:3:forces:R:3 energy=-0.8416059916166692 pbc="F F F"
Rb       0.00000000       0.00000000       0.00000000       0.00000000       0.00000000       0.10308531
Rb       0.00000000       0.00000000       5.00060606       0.00000000       0.00000000      -0.10308531
2
Properties=species:S:1:pos:R:3:forces:R:3 energy=-0.8346277172381213 pbc="F F F"
Rb       0.00000000       0.00000000       0.00000000       0.00000000       0.00000000       0.13892026
Rb       0.00000000       0.00000000       5.05939394       0.00000000       0.00000000      -0.13892026
2
Properties=species:S:1:pos:R:3:forces:R:3 energy=-0.8247180616439118 pbc="F F F"
Rb       0.00000000       0.00000000       0.00000000       0.00000000       0.00000000       0.20253621
Rb       0.00000000       0.00000000       5.11818182       0.00000000       0.00000000      -0.20253621
2
Properties=species:S:1:pos:R:3:forces:R:3 energy=-0.8104625010524706 pbc="F F F"
Rb       0.00000000       0.00000000       0.00000000       0.00000000       0.00000000       0.28365076
Rb       0.00000000       0.00000000       5.17696970       0.00000000       0.00000000      -0.28365076
2
Properties=species:S:1:pos:R:3:forces:R:3 energy=-0.7915018948611718 pbc="F F F"
Rb       0.00000000       0.00000000       0.00000000       0.00000000       0.00000000       0.35792536
Rb       0.00000000       0.00000000       5.23575758       0.00000000       0.00000000      -0.35792536
2
Properties=species:S:1:pos:R:3:forces:R:3 energy=-0.7689993246087957 pbc="F F F"
Rb       0.00000000       0.00000000       0.00000000       0.00000000       0.00000000       0.40172607
Rb       0.00000000       0.00000000       5.29454545       0.00000000       0.00000000      -0.40172607
2
Properties=species:S:1:pos:R:3:forces:R:3 energy=-0.7447171463718596 pbc="F F F"
Rb       0.00000000       0.00000000       0.00000000       0.00000000       0.00000000       0.42456549
Rb       0.00000000       0.00000000       5.35333333       0.00000000       0.00000000      -0.42456549
2
Properties=species:S:1:pos:R:3:forces:R:3 energy=-0.7184133310391931 pbc="F F F"
Rb       0.00000000       0.00000000       0.00000000       0.00000000       0.00000000       0.48013186
Rb       0.00000000       0.00000000       5.41212121       0.00000000       0.00000000      -0.48013186
2
Properties=species:S:1:pos:R:3:forces:R:3 energy=-0.6873522504026398 pbc="F F F"
Rb       0.00000000       0.00000000       0.00000000       0.00000000       0.00000000       0.57724190
Rb       0.00000000       0.00000000       5.47090909       0.00000000       0.00000000      -0.57724190
2
Properties=species:S:1:pos:R:3:forces:R:3 energy=-0.651621220258857 pbc="F F F"
Rb       0.00000000       0.00000000       0.00000000       0.00000000       0.00000000       0.62177432
Rb       0.00000000       0.00000000       5.52969697       0.00000000       0.00000000      -0.62177432
2
Properties=species:S:1:pos:R:3:forces:R:3 energy=-0.6161106954308582 pbc="F F F"
Rb       0.00000000       0.00000000       0.00000000       0.00000000       0.00000000       0.57649261
Rb       0.00000000       0.00000000       5.58848485       0.00000000       0.00000000      -0.57649261
2
Properties=species:S:1:pos:R:3:forces:R:3 energy=-0.5837778875342842 pbc="F F F"
Rb       0.00000000       0.00000000       0.00000000       0.00000000       0.00000000       0.53609622
Rb       0.00000000       0.00000000       5.64727273       0.00000000       0.00000000      -0.53609622
2
Properties=species:S:1:pos:R:3:forces:R:3 energy=-0.5507884615224121 pbc="F F F"
Rb       0.00000000       0.00000000       0.00000000       0.00000000       0.00000000       0.60643202
Rb       0.00000000       0.00000000       5.70606061       0.00000000       0.00000000      -0.60643202
2
Properties=species:S:1:pos:R:3:forces:R:3 energy=-0.5114011290993019 pbc="F F F"
Rb       0.00000000       0.00000000       0.00000000       0.00000000       0.00000000       0.72005671
Rb       0.00000000       0.00000000       5.76484848       0.00000000       0.00000000      -0.72005671
2
Properties=species:S:1:pos:R:3:forces:R:3 energy=-0.4696038857460009 pbc="F F F"
Rb       0.00000000       0.00000000       0.00000000       0.00000000       0.00000000       0.66276330
Rb       0.00000000       0.00000000       5.82363636       0.00000000       0.00000000      -0.66276330
2
Properties=species:S:1:pos:R:3:forces:R:3 energy=-0.4376291070649418 pbc="F F F"
Rb       0.00000000       0.00000000       0.00000000       0.00000000       0.00000000       0.40954906
Rb       0.00000000       0.00000000       5.88242424       0.00000000       0.00000000      -0.40954906
2
Properties=species:S:1:pos:R:3:forces:R:3 energy=-0.42158822671995044 pbc="F F F"
Rb       0.00000000       0.00000000       0.00000000       0.00000000       0.00000000       0.14963880
Rb       0.00000000       0.00000000       5.94121212       0.00000000       0.00000000      -0.14963880
2
Properties=species:S:1:pos:R:3:forces:R:3 energy=-0.4168522434502914 pbc="F F F"
Rb       0.00000000       0.00000000       0.00000000       0.00000000       0.00000000       0.04632730
Rb       0.00000000       0.00000000       6.00000000       0.00000000       0.00000000      -0.04632730
