2
Properties=species:S:1:pos:R:3:forces:R:3 energy=79607.03222315571 pbc="F F F"
Re       0.00000000       0.00000000       0.00000000       0.00000000       0.00000000 -2007334.50000000
Re       0.00000000       0.00000000       0.10000000       0.00000000       0.00000000 2007334.50000000
2
Properties=species:S:1:pos:R:3:forces:R:3 energy=22015.262691905707 pbc="F F F"
Re       0.00000000       0.00000000       0.00000000       0.00000000       0.00000000 -412485.78125000
Re       0.00000000       0.00000000       0.15959596       0.00000000       0.00000000  412485.78125000
2
Properties=species:S:1:pos:R:3:forces:R:3 energy=8039.555660655706 pbc="F F F"
Re       0.00000000       0.00000000       0.00000000       0.00000000       0.00000000 -123545.19531250
Re       0.00000000       0.00000000       0.21919192       0.00000000       0.00000000  123545.19531250
2
Properties=species:S:1:pos:R:3:forces:R:3 energy=3450.9081997182057 pbc="F F F"
Re       0.00000000       0.00000000       0.00000000       0.00000000       0.00000000  -45243.87890625
Re       0.00000000       0.00000000       0.27878788       0.00000000       0.00000000   45243.87890625
2
Properties=species:S:1:pos:R:3:forces:R:3 energy=1676.0349087025809 pbc="F F F"
Re       0.00000000       0.00000000       0.00000000       0.00000000       0.00000000  -18660.90039062
Re       0.00000000       0.00000000       0.33838384       0.00000000       0.00000000   18660.90039062
2
Properties=species:S:1:pos:R:3:forces:R:3 energy=916.4780239401236 pbc="F F F"
Re       0.00000000       0.00000000       0.00000000       0.00000000       0.00000000   -8345.19726562
Re       0.00000000       0.00000000       0.39797980       0.00000000       0.00000000    8345.19726562
2
Properties=species:S:1:pos:R:3:forces:R:3 energy=567.028255880053 pbc="F F F"
Re       0.00000000       0.00000000       0.00000000       0.00000000       0.00000000   -3973.06933594
Re       0.00000000       0.00000000       0.45757576       0.00000000       0.00000000    3973.06933594
2
Properties=species:S:1:pos:R:3:forces:R:3 energy=396.6283230282284 pbc="F F F"
Re       0.00000000       0.00000000       0.00000000       0.00000000       0.00000000   -1994.90686035
Re       0.00000000       0.00000000       0.51717172       0.00000000       0.00000000    1994.90686035
2
Properties=species:S:1:pos:R:3:forces:R:3 energy=309.05785796251257 pbc="F F F"
Re       0.00000000       0.00000000       0.00000000       0.00000000       0.00000000   -1056.91003418
Re       0.00000000       0.00000000       0.57676768       0.00000000       0.00000000    1056.91003418
2
Properties=species:S:1:pos:R:3:forces:R:3 energy=261.27288485282736 pbc="F F F"
Re       0.00000000       0.00000000       0.00000000       0.00000000       0.00000000    -599.56018066
Re       0.00000000       0.00000000       0.63636364       0.00000000       0.00000000     599.56018066
2
Properties=species:S:1:pos:R:3:forces:R:3 energy=233.49210792914127 pbc="F F F"
Re       0.00000000       0.00000000       0.00000000       0.00000000       0.00000000    -353.31655884
Re       0.00000000       0.00000000       0.69595960       0.00000000       0.00000000     353.31655884
2
Properties=species:S:1:pos:R:3:forces:R:3 energy=217.02135911330527 pbc="F F F"
Re       0.00000000       0.00000000       0.00000000       0.00000000       0.00000000    -221.70082092
Re       0.00000000       0.00000000       0.75555556       0.00000000       0.00000000     221.70082092
2
Properties=species:S:1:pos:R:3:forces:R:3 energy=203.32621458986566 pbc="F F F"
Re       0.00000000       0.00000000       0.00000000       0.00000000       0.00000000    -280.41003418
Re       0.00000000       0.00000000       0.81515152       0.00000000       0.00000000     280.41003418
2
Properties=species:S:1:pos:R:3:forces:R:3 energy=183.6782808104706 pbc="F F F"
Re       0.00000000       0.00000000       0.00000000       0.00000000       0.00000000    -383.56256104
Re       0.00000000       0.00000000       0.87474747       0.00000000       0.00000000     383.56256104
2
Properties=species:S:1:pos:R:3:forces:R:3 energy=158.81538128995857 pbc="F F F"
Re       0.00000000       0.00000000       0.00000000       0.00000000       0.00000000    -431.54501343
Re       0.00000000       0.00000000       0.93434343       0.00000000       0.00000000     431.54501343
2
Properties=species:S:1:pos:R:3:forces:R:3 energy=133.0399910260903 pbc="F F F"
Re       0.00000000       0.00000000       0.00000000       0.00000000       0.00000000    -427.18310547
Re       0.00000000       0.00000000       0.99393939       0.00000000       0.00000000     427.18310547
2
Properties=species:S:1:pos:R:3:forces:R:3 energy=108.57385839625913 pbc="F F F"
Re       0.00000000       0.00000000       0.00000000       0.00000000       0.00000000    -389.60192871
Re       0.00000000       0.00000000       1.05353535       0.00000000       0.00000000     389.60192871
2
Properties=species:S:1:pos:R:3:forces:R:3 energy=86.85807688330314 pbc="F F F"
Re       0.00000000       0.00000000       0.00000000       0.00000000       0.00000000    -337.85037231
Re       0.00000000       0.00000000       1.11313131       0.00000000       0.00000000     337.85037231
2
Properties=species:S:1:pos:R:3:forces:R:3 energy=68.45021793953684 pbc="F F F"
Re       0.00000000       0.00000000       0.00000000       0.00000000       0.00000000    -280.76126099
Re       0.00000000       0.00000000       1.17272727       0.00000000       0.00000000     280.76126099
2
Properties=species:S:1:pos:R:3:forces:R:3 energy=53.0264977443015 pbc="F F F"
Re       0.00000000       0.00000000       0.00000000       0.00000000       0.00000000    -239.70193481
Re       0.00000000       0.00000000       1.23232323       0.00000000       0.00000000     239.70193481
2
Properties=species:S:1:pos:R:3:forces:R:3 energy=39.738764193973374 pbc="F F F"
Re       0.00000000       0.00000000       0.00000000       0.00000000       0.00000000    -206.76527405
Re       0.00000000       0.00000000       1.29191919       0.00000000       0.00000000     206.76527405
2
Properties=species:S:1:pos:R:3:forces:R:3 energy=28.22546607345451 pbc="F F F"
Re       0.00000000       0.00000000       0.00000000       0.00000000       0.00000000    -181.35643005
Re       0.00000000       0.00000000       1.35151515       0.00000000       0.00000000     181.35643005
2
Properties=species:S:1:pos:R:3:forces:R:3 energy=18.01848289332493 pbc="F F F"
Re       0.00000000       0.00000000       0.00000000       0.00000000       0.00000000    -160.91612244
Re       0.00000000       0.00000000       1.41111111       0.00000000       0.00000000     160.91612244
2
Properties=species:S:1:pos:R:3:forces:R:3 energy=9.188968386198555 pbc="F F F"
Re       0.00000000       0.00000000       0.00000000       0.00000000       0.00000000    -133.49407959
Re       0.00000000       0.00000000       1.47070707       0.00000000       0.00000000     133.49407959
2
Properties=species:S:1:pos:R:3:forces:R:3 energy=2.3028968953160014 pbc="F F F"
Re       0.00000000       0.00000000       0.00000000       0.00000000       0.00000000     -97.10572052
Re       0.00000000       0.00000000       1.53030303       0.00000000       0.00000000      97.10572052
2
Properties=species:S:1:pos:R:3:forces:R:3 energy=-2.5075388282442184 pbc="F F F"
Re       0.00000000       0.00000000       0.00000000       0.00000000       0.00000000     -66.31150055
Re       0.00000000       0.00000000       1.58989899       0.00000000       0.00000000      66.31150055
2
Properties=species:S:1:pos:R:3:forces:R:3 energy=-5.835579364006037 pbc="F F F"
Re       0.00000000       0.00000000       0.00000000       0.00000000       0.00000000     -47.02764130
Re       0.00000000       0.00000000       1.64949495       0.00000000       0.00000000      47.02764130
2
Properties=species:S:1:pos:R:3:forces:R:3 energy=-8.264168599779856 pbc="F F F"
Re       0.00000000       0.00000000       0.00000000       0.00000000       0.00000000     -35.37880325
Re       0.00000000       0.00000000       1.70909091       0.00000000       0.00000000      35.37880325
2
Properties=species:S:1:pos:R:3:forces:R:3 energy=-10.121313964359873 pbc="F F F"
Re       0.00000000       0.00000000       0.00000000       0.00000000       0.00000000     -27.26044846
Re       0.00000000       0.00000000       1.76868687       0.00000000       0.00000000      27.26044846
2
Properties=species:S:1:pos:R:3:forces:R:3 energy=-11.53578615294463 pbc="F F F"
Re       0.00000000       0.00000000       0.00000000       0.00000000       0.00000000     -20.34775925
Re       0.00000000       0.00000000       1.82828283       0.00000000       0.00000000      20.34775925
2
Properties=species:S:1:pos:R:3:forces:R:3 energy=-12.564477604903168 pbc="F F F"
Re       0.00000000       0.00000000       0.00000000       0.00000000       0.00000000     -14.34150314
Re       0.00000000       0.00000000       1.88787879       0.00000000       0.00000000      14.34150314
2
Properties=species:S:1:pos:R:3:forces:R:3 energy=-13.265819999454674 pbc="F F F"
Re       0.00000000       0.00000000       0.00000000       0.00000000       0.00000000      -9.36457348
Re       0.00000000       0.00000000       1.94747475       0.00000000       0.00000000       9.36457348
2
Properties=species:S:1:pos:R:3:forces:R:3 energy=-13.699311629185313 pbc="F F F"
Re       0.00000000       0.00000000       0.00000000       0.00000000       0.00000000      -5.32401800
Re       0.00000000       0.00000000       2.00707071       0.00000000       0.00000000       5.32401800
2
Properties=species:S:1:pos:R:3:forces:R:3 energy=-13.915398899712047 pbc="F F F"
Re       0.00000000       0.00000000       0.00000000       0.00000000       0.00000000      -2.04076648
Re       0.00000000       0.00000000       2.06666667       0.00000000       0.00000000       2.04076648
2
Properties=species:S:1:pos:R:3:forces:R:3 energy=-13.955029696328308 pbc="F F F"
Re       0.00000000       0.00000000       0.00000000       0.00000000       0.00000000       0.61151487
Re       0.00000000       0.00000000       2.12626263       0.00000000       0.00000000      -0.61151487
2
Properties=species:S:1:pos:R:3:forces:R:3 energy=-13.85409217391469 pbc="F F F"
Re       0.00000000       0.00000000       0.00000000       0.00000000       0.00000000       2.67950392
Re       0.00000000       0.00000000       2.18585859       0.00000000       0.00000000      -2.67950392
2
Properties=species:S:1:pos:R:3:forces:R:3 energy=-13.647083614734212 pbc="F F F"
Re       0.00000000       0.00000000       0.00000000       0.00000000       0.00000000       4.17260838
Re       0.00000000       0.00000000       2.24545455       0.00000000       0.00000000      -4.17260838
2
Properties=species:S:1:pos:R:3:forces:R:3 energy=-13.367799111009624 pbc="F F F"
Re       0.00000000       0.00000000       0.00000000       0.00000000       0.00000000       5.11093521
Re       0.00000000       0.00000000       2.30505051       0.00000000       0.00000000      -5.11093521
2
Properties=species:S:1:pos:R:3:forces:R:3 energy=-13.047799247563905 pbc="F F F"
Re       0.00000000       0.00000000       0.00000000       0.00000000       0.00000000       5.55242062
Re       0.00000000       0.00000000       2.36464646       0.00000000       0.00000000      -5.55242062
2
Properties=species:S:1:pos:R:3:forces:R:3 energy=-12.713915340014152 pbc="F F F"
Re       0.00000000       0.00000000       0.00000000       0.00000000       0.00000000       5.59596300
Re       0.00000000       0.00000000       2.42424242       0.00000000       0.00000000      -5.59596300
2
Properties=species:S:1:pos:R:3:forces:R:3 energy=-12.386259638364638 pbc="F F F"
Re       0.00000000       0.00000000       0.00000000       0.00000000       0.00000000       5.36529589
Re       0.00000000       0.00000000       2.48383838       0.00000000       0.00000000      -5.36529589
2
Properties=species:S:1:pos:R:3:forces:R:3 energy=-12.077260463913412 pbc="F F F"
Re       0.00000000       0.00000000       0.00000000       0.00000000       0.00000000       4.99129629
Re       0.00000000       0.00000000       2.54343434       0.00000000       0.00000000      -4.99129629
2
Properties=species:S:1:pos:R:3:forces:R:3 energy=-11.791787277893864 pbc="F F F"
Re       0.00000000       0.00000000       0.00000000       0.00000000       0.00000000       4.59334087
Re       0.00000000       0.00000000       2.60303030       0.00000000       0.00000000      -4.59334087
2
Properties=species:S:1:pos:R:3:forces:R:3 energy=-11.528626792688566 pbc="F F F"
Re       0.00000000       0.00000000       0.00000000       0.00000000       0.00000000       4.25093317
Re       0.00000000       0.00000000       2.66262626       0.00000000       0.00000000      -4.25093317
2
Properties=species:S:1:pos:R:3:forces:R:3 energy=-11.28351969640748 pbc="F F F"
Re       0.00000000       0.00000000       0.00000000       0.00000000       0.00000000       3.98712993
Re       0.00000000       0.00000000       2.72222222       0.00000000       0.00000000      -3.98712993
2
Properties=species:S:1:pos:R:3:forces:R:3 energy=-11.052155287311027 pbc="F F F"
Re       0.00000000       0.00000000       0.00000000       0.00000000       0.00000000       3.78541589
Re       0.00000000       0.00000000       2.78181818       0.00000000       0.00000000      -3.78541589
2
Properties=species:S:1:pos:R:3:forces:R:3 energy=-10.831665925102927 pbc="F F F"
Re       0.00000000       0.00000000       0.00000000       0.00000000       0.00000000       3.61676359
Re       0.00000000       0.00000000       2.84141414       0.00000000       0.00000000      -3.61676359
2
Properties=species:S:1:pos:R:3:forces:R:3 energy=-10.621188811177667 pbc="F F F"
Re       0.00000000       0.00000000       0.00000000       0.00000000       0.00000000       3.44106531
Re       0.00000000       0.00000000       2.90101010       0.00000000       0.00000000      -3.44106531
2
Properties=species:S:1:pos:R:3:forces:R:3 energy=-10.422828107999436 pbc="F F F"
Re       0.00000000       0.00000000       0.00000000       0.00000000       0.00000000       3.19996977
Re       0.00000000       0.00000000       2.96060606       0.00000000       0.00000000      -3.19996977
2
Properties=species:S:1:pos:R:3:forces:R:3 energy=-10.241979471885468 pbc="F F F"
Re       0.00000000       0.00000000       0.00000000       0.00000000       0.00000000       2.85018992
Re       0.00000000       0.00000000       3.02020202       0.00000000       0.00000000      -2.85018992
2
Properties=species:S:1:pos:R:3:forces:R:3 energy=-10.085037217122501 pbc="F F F"
Re       0.00000000       0.00000000       0.00000000       0.00000000       0.00000000       2.40503073
Re       0.00000000       0.00000000       3.07979798       0.00000000       0.00000000      -2.40503073
2
Properties=species:S:1:pos:R:3:forces:R:3 energy=-9.955964990403007 pbc="F F F"
Re       0.00000000       0.00000000       0.00000000       0.00000000       0.00000000       1.92774963
Re       0.00000000       0.00000000       3.13939394       0.00000000       0.00000000      -1.92774963
2
Properties=species:S:1:pos:R:3:forces:R:3 energy=-9.854409488312387 pbc="F F F"
Re       0.00000000       0.00000000       0.00000000       0.00000000       0.00000000       1.49256504
Re       0.00000000       0.00000000       3.19898990       0.00000000       0.00000000      -1.49256504
2
Properties=species:S:1:pos:R:3:forces:R:3 energy=-9.776234269337829 pbc="F F F"
Re       0.00000000       0.00000000       0.00000000       0.00000000       0.00000000       1.14798212
Re       0.00000000       0.00000000       3.25858586       0.00000000       0.00000000      -1.14798212
2
Properties=species:S:1:pos:R:3:forces:R:3 energy=-9.715584162789549 pbc="F F F"
Re       0.00000000       0.00000000       0.00000000       0.00000000       0.00000000       0.90284413
Re       0.00000000       0.00000000       3.31818182       0.00000000       0.00000000      -0.90284413
2
Properties=species:S:1:pos:R:3:forces:R:3 energy=-9.667054578307804 pbc="F F F"
Re       0.00000000       0.00000000       0.00000000       0.00000000       0.00000000       0.73635834
Re       0.00000000       0.00000000       3.37777778       0.00000000       0.00000000      -0.73635834
2
Properties=species:S:1:pos:R:3:forces:R:3 energy=-9.626853770167004 pbc="F F F"
Re       0.00000000       0.00000000       0.00000000       0.00000000       0.00000000       0.61862159
Re       0.00000000       0.00000000       3.43737374       0.00000000       0.00000000      -0.61862159
2
Properties=species:S:1:pos:R:3:forces:R:3 energy=-9.59281186652794 pbc="F F F"
Re       0.00000000       0.00000000       0.00000000       0.00000000       0.00000000       0.52695495
Re       0.00000000       0.00000000       3.49696970       0.00000000       0.00000000      -0.52695495
2
Properties=species:S:1:pos:R:3:forces:R:3 energy=-9.5637300294025 pbc="F F F"
Re       0.00000000       0.00000000       0.00000000       0.00000000       0.00000000       0.45138431
Re       0.00000000       0.00000000       3.55656566       0.00000000       0.00000000      -0.45138431
2
Properties=species:S:1:pos:R:3:forces:R:3 energy=-9.538713966027364 pbc="F F F"
Re       0.00000000       0.00000000       0.00000000       0.00000000       0.00000000       0.39074740
Re       0.00000000       0.00000000       3.61616162       0.00000000       0.00000000      -0.39074740
2
Properties=species:S:1:pos:R:3:forces:R:3 energy=-9.516842319626635 pbc="F F F"
Re       0.00000000       0.00000000       0.00000000       0.00000000       0.00000000       0.34587979
Re       0.00000000       0.00000000       3.67575758       0.00000000       0.00000000      -0.34587979
2
Properties=species:S:1:pos:R:3:forces:R:3 energy=-9.497202664953692 pbc="F F F"
Re       0.00000000       0.00000000       0.00000000       0.00000000       0.00000000       0.31530660
Re       0.00000000       0.00000000       3.73535354       0.00000000       0.00000000      -0.31530660
2
Properties=species:S:1:pos:R:3:forces:R:3 energy=-9.47906193722549 pbc="F F F"
Re       0.00000000       0.00000000       0.00000000       0.00000000       0.00000000       0.29467279
Re       0.00000000       0.00000000       3.79494949       0.00000000       0.00000000      -0.29467279
2
Properties=species:S:1:pos:R:3:forces:R:3 energy=-9.461989576486612 pbc="F F F"
Re       0.00000000       0.00000000       0.00000000       0.00000000       0.00000000       0.27860579
Re       0.00000000       0.00000000       3.85454545       0.00000000       0.00000000      -0.27860579
2
Properties=species:S:1:pos:R:3:forces:R:3 energy=-9.445847201918541 pbc="F F F"
Re       0.00000000       0.00000000       0.00000000       0.00000000       0.00000000       0.26297867
Re       0.00000000       0.00000000       3.91414141       0.00000000       0.00000000      -0.26297867
2
Properties=species:S:1:pos:R:3:forces:R:3 energy=-9.4306759452218 pbc="F F F"
Re       0.00000000       0.00000000       0.00000000       0.00000000       0.00000000       0.24584070
Re       0.00000000       0.00000000       3.97373737       0.00000000       0.00000000      -0.24584070
2
Properties=species:S:1:pos:R:3:forces:R:3 energy=-9.416583923382248 pbc="F F F"
Re       0.00000000       0.00000000       0.00000000       0.00000000       0.00000000       0.22677763
Re       0.00000000       0.00000000       4.03333333       0.00000000       0.00000000      -0.22677763
2
Properties=species:S:1:pos:R:3:forces:R:3 energy=-9.403684515937584 pbc="F F F"
Re       0.00000000       0.00000000       0.00000000       0.00000000       0.00000000       0.20573944
Re       0.00000000       0.00000000       4.09292929       0.00000000       0.00000000      -0.20573944
2
Properties=species:S:1:pos:R:3:forces:R:3 energy=-9.392104941710551 pbc="F F F"
Re       0.00000000       0.00000000       0.00000000       0.00000000       0.00000000       0.18249623
Re       0.00000000       0.00000000       4.15252525       0.00000000       0.00000000      -0.18249623
2
Properties=species:S:1:pos:R:3:forces:R:3 energy=-9.381980270665967 pbc="F F F"
Re       0.00000000       0.00000000       0.00000000       0.00000000       0.00000000       0.15689828
Re       0.00000000       0.00000000       4.21212121       0.00000000       0.00000000      -0.15689828
2
Properties=species:S:1:pos:R:3:forces:R:3 energy=-9.373440569818383 pbc="F F F"
Re       0.00000000       0.00000000       0.00000000       0.00000000       0.00000000       0.12944582
Re       0.00000000       0.00000000       4.27171717       0.00000000       0.00000000      -0.12944582
2
Properties=species:S:1:pos:R:3:forces:R:3 energy=-9.366559975186831 pbc="F F F"
Re       0.00000000       0.00000000       0.00000000       0.00000000       0.00000000       0.10155631
Re       0.00000000       0.00000000       4.33131313       0.00000000       0.00000000      -0.10155631
2
Properties=species:S:1:pos:R:3:forces:R:3 energy=-9.361303514116297 pbc="F F F"
Re       0.00000000       0.00000000       0.00000000       0.00000000       0.00000000       0.07532610
Re       0.00000000       0.00000000       4.39090909       0.00000000       0.00000000      -0.07532610
2
Properties=species:S:1:pos:R:3:forces:R:3 energy=-9.357505110579822 pbc="F F F"
Re       0.00000000       0.00000000       0.00000000       0.00000000       0.00000000       0.05294103
Re       0.00000000       0.00000000       4.45050505       0.00000000       0.00000000      -0.05294103
2
Properties=species:S:1:pos:R:3:forces:R:3 energy=-9.354883705775046 pbc="F F F"
Re       0.00000000       0.00000000       0.00000000       0.00000000       0.00000000       0.03602420
Re       0.00000000       0.00000000       4.51010101       0.00000000       0.00000000      -0.03602420
2
Properties=species:S:1:pos:R:3:forces:R:3 energy=-9.353090061025611 pbc="F F F"
Re       0.00000000       0.00000000       0.00000000       0.00000000       0.00000000       0.02518881
Re       0.00000000       0.00000000       4.56969697       0.00000000       0.00000000      -0.02518881
2
Properties=species:S:1:pos:R:3:forces:R:3 energy=-9.351769709789522 pbc="F F F"
Re       0.00000000       0.00000000       0.00000000       0.00000000       0.00000000       0.01994048
Re       0.00000000       0.00000000       4.62929293       0.00000000       0.00000000      -0.01994048
2
Properties=species:S:1:pos:R:3:forces:R:3 energy=-9.350628542607238 pbc="F F F"
Re       0.00000000       0.00000000       0.00000000       0.00000000       0.00000000       0.01892513
Re       0.00000000       0.00000000       4.68888889       0.00000000       0.00000000      -0.01892513
2
Properties=species:S:1:pos:R:3:forces:R:3 energy=-9.349464291025411 pbc="F F F"
Re       0.00000000       0.00000000       0.00000000       0.00000000       0.00000000       0.02043201
Re       0.00000000       0.00000000       4.74848485       0.00000000       0.00000000      -0.02043201
2
Properties=species:S:1:pos:R:3:forces:R:3 energy=-9.348174074628043 pbc="F F F"
Re       0.00000000       0.00000000       0.00000000       0.00000000       0.00000000       0.02295861
Re       0.00000000       0.00000000       4.80808081       0.00000000       0.00000000      -0.02295861
2
Properties=species:S:1:pos:R:3:forces:R:3 energy=-9.346725787639159 pbc="F F F"
Re       0.00000000       0.00000000       0.00000000       0.00000000       0.00000000       0.02561705
Re       0.00000000       0.00000000       4.86767677       0.00000000       0.00000000      -0.02561705
2
Properties=species:S:1:pos:R:3:forces:R:3 energy=-9.345121675565116 pbc="F F F"
Re       0.00000000       0.00000000       0.00000000       0.00000000       0.00000000       0.02824092
Re       0.00000000       0.00000000       4.92727273       0.00000000       0.00000000      -0.02824092
2
Properties=species:S:1:pos:R:3:forces:R:3 energy=-9.343353480823495 pbc="F F F"
Re       0.00000000       0.00000000       0.00000000       0.00000000       0.00000000       0.03119523
Re       0.00000000       0.00000000       4.98686869       0.00000000       0.00000000      -0.03119523
2
Properties=species:S:1:pos:R:3:forces:R:3 energy=-9.341385187906399 pbc="F F F"
Re       0.00000000       0.00000000       0.00000000       0.00000000       0.00000000       0.03504665
Re       0.00000000       0.00000000       5.04646465       0.00000000       0.00000000      -0.03504665
2
Properties=species:S:1:pos:R:3:forces:R:3 energy=-9.339149088305934 pbc="F F F"
Re       0.00000000       0.00000000       0.00000000       0.00000000       0.00000000       0.04025883
Re       0.00000000       0.00000000       5.10606061       0.00000000       0.00000000      -0.04025883
2
Properties=species:S:1:pos:R:3:forces:R:3 energy=-9.336557256284234 pbc="F F F"
Re       0.00000000       0.00000000       0.00000000       0.00000000       0.00000000       0.04691380
Re       0.00000000       0.00000000       5.16565657       0.00000000       0.00000000      -0.04691380
2
Properties=species:S:1:pos:R:3:forces:R:3 energy=-9.333539556461943 pbc="F F F"
Re       0.00000000       0.00000000       0.00000000       0.00000000       0.00000000       0.05441141
Re       0.00000000       0.00000000       5.22525253       0.00000000       0.00000000      -0.05441141
2
Properties=species:S:1:pos:R:3:forces:R:3 energy=-9.330077944415383 pbc="F F F"
Re       0.00000000       0.00000000       0.00000000       0.00000000       0.00000000       0.06167527
Re       0.00000000       0.00000000       5.28484848       0.00000000       0.00000000      -0.06167527
2
Properties=species:S:1:pos:R:3:forces:R:3 energy=-9.32619214255487 pbc="F F F"
Re       0.00000000       0.00000000       0.00000000       0.00000000       0.00000000       0.06884503
Re       0.00000000       0.00000000       5.34444444       0.00000000       0.00000000      -0.06884503
2
Properties=species:S:1:pos:R:3:forces:R:3 energy=-9.321826116451113 pbc="F F F"
Re       0.00000000       0.00000000       0.00000000       0.00000000       0.00000000       0.07819276
Re       0.00000000       0.00000000       5.40404040       0.00000000       0.00000000      -0.07819276
2
Properties=species:S:1:pos:R:3:forces:R:3 energy=-9.316850931106435 pbc="F F F"
Re       0.00000000       0.00000000       0.00000000       0.00000000       0.00000000       0.08825555
Re       0.00000000       0.00000000       5.46363636       0.00000000       0.00000000      -0.08825555
2
Properties=species:S:1:pos:R:3:forces:R:3 energy=-9.311455735249728 pbc="F F F"
Re       0.00000000       0.00000000       0.00000000       0.00000000       0.00000000       0.09106353
Re       0.00000000       0.00000000       5.52323232       0.00000000       0.00000000      -0.09106353
2
Properties=species:S:1:pos:R:3:forces:R:3 energy=-9.306220310276606 pbc="F F F"
Re       0.00000000       0.00000000       0.00000000       0.00000000       0.00000000       0.08311274
Re       0.00000000       0.00000000       5.58282828       0.00000000       0.00000000      -0.08311274
2
Properties=species:S:1:pos:R:3:forces:R:3 energy=-9.301637182798292 pbc="F F F"
Re       0.00000000       0.00000000       0.00000000       0.00000000       0.00000000       0.07086526
Re       0.00000000       0.00000000       5.64242424       0.00000000       0.00000000      -0.07086526
2
Properties=species:S:1:pos:R:3:forces:R:3 energy=-9.297666380697025 pbc="F F F"
Re       0.00000000       0.00000000       0.00000000       0.00000000       0.00000000       0.06369240
Re       0.00000000       0.00000000       5.70202020       0.00000000       0.00000000      -0.06369240
2
Properties=species:S:1:pos:R:3:forces:R:3 energy=-9.293894690401249 pbc="F F F"
Re       0.00000000       0.00000000       0.00000000       0.00000000       0.00000000       0.06368086
Re       0.00000000       0.00000000       5.76161616       0.00000000       0.00000000      -0.06368086
2
Properties=species:S:1:pos:R:3:forces:R:3 energy=-9.290146005280285 pbc="F F F"
Re       0.00000000       0.00000000       0.00000000       0.00000000       0.00000000       0.06011661
Re       0.00000000       0.00000000       5.82121212       0.00000000       0.00000000      -0.06011661
2
Properties=species:S:1:pos:R:3:forces:R:3 energy=-9.287021198758177 pbc="F F F"
Re       0.00000000       0.00000000       0.00000000       0.00000000       0.00000000       0.04304034
Re       0.00000000       0.00000000       5.88080808       0.00000000       0.00000000      -0.04304034
2
Properties=species:S:1:pos:R:3:forces:R:3 energy=-9.285080804833694 pbc="F F F"
Re       0.00000000       0.00000000       0.00000000       0.00000000       0.00000000       0.02253651
Re       0.00000000       0.00000000       5.94040404       0.00000000       0.00000000      -0.02253651
2
Properties=species:S:1:pos:R:3:forces:R:3 energy=-9.2840907282203 pbc="F F F"
Re       0.00000000       0.00000000       0.00000000       0.00000000       0.00000000       0.01352419
Re       0.00000000       0.00000000       6.00000000       0.00000000       0.00000000      -0.01352419
