2
Properties=species:S:1:pos:R:3:forces:R:3 energy=15238.704098155706 pbc="F F F"
Re       0.00000000       0.00000000       0.00000000       0.00000000       0.00000000 -264727.65625000
Re       0.00000000       0.00000000       0.18000000       0.00000000       0.00000000  264727.65625000
2
Properties=species:S:1:pos:R:3:forces:R:3 energy=5997.405758311956 pbc="F F F"
Re       0.00000000       0.00000000       0.00000000       0.00000000       0.00000000  -87305.34375000
Re       0.00000000       0.00000000       0.23878788       0.00000000       0.00000000   87305.34375000
2
Properties=species:S:1:pos:R:3:forces:R:3 energy=2713.5617641713307 pbc="F F F"
Re       0.00000000       0.00000000       0.00000000       0.00000000       0.00000000  -33866.26562500
Re       0.00000000       0.00000000       0.29757576       0.00000000       0.00000000   33866.26562500
2
Properties=species:S:1:pos:R:3:forces:R:3 energy=1379.3727993275809 pbc="F F F"
Re       0.00000000       0.00000000       0.00000000       0.00000000       0.00000000  -14529.74121094
Re       0.00000000       0.00000000       0.35636364       0.00000000       0.00000000   14529.74121094
2
Properties=species:S:1:pos:R:3:forces:R:3 energy=787.8806728690728 pbc="F F F"
Re       0.00000000       0.00000000       0.00000000       0.00000000       0.00000000   -6699.08007812
Re       0.00000000       0.00000000       0.41515152       0.00000000       0.00000000    6699.08007812
2
Properties=species:S:1:pos:R:3:forces:R:3 energy=507.9579433832209 pbc="F F F"
Re       0.00000000       0.00000000       0.00000000       0.00000000       0.00000000   -3271.65698242
Re       0.00000000       0.00000000       0.47393939       0.00000000       0.00000000    3271.65698242
2
Properties=species:S:1:pos:R:3:forces:R:3 energy=368.1181301634703 pbc="F F F"
Re       0.00000000       0.00000000       0.00000000       0.00000000       0.00000000   -1680.72192383
Re       0.00000000       0.00000000       0.53272727       0.00000000       0.00000000    1680.72192383
2
Properties=species:S:1:pos:R:3:forces:R:3 energy=294.56991241220754 pbc="F F F"
Re       0.00000000       0.00000000       0.00000000       0.00000000       0.00000000    -912.21020508
Re       0.00000000       0.00000000       0.59151515       0.00000000       0.00000000     912.21020508
2
Properties=species:S:1:pos:R:3:forces:R:3 energy=253.41152622292051 pbc="F F F"
Re       0.00000000       0.00000000       0.00000000       0.00000000       0.00000000    -529.97717285
Re       0.00000000       0.00000000       0.65030303       0.00000000       0.00000000     529.97717285
2
Properties=species:S:1:pos:R:3:forces:R:3 energy=229.11890848208975 pbc="F F F"
Re       0.00000000       0.00000000       0.00000000       0.00000000       0.00000000    -313.52691650
Re       0.00000000       0.00000000       0.70909091       0.00000000       0.00000000     313.52691650
2
Properties=species:S:1:pos:R:3:forces:R:3 energy=214.34832446434345 pbc="F F F"
Re       0.00000000       0.00000000       0.00000000       0.00000000       0.00000000    -213.34959412
Re       0.00000000       0.00000000       0.76787879       0.00000000       0.00000000     213.34959412
2
Properties=species:S:1:pos:R:3:forces:R:3 energy=199.94628602950888 pbc="F F F"
Re       0.00000000       0.00000000       0.00000000       0.00000000       0.00000000    -305.34677124
Re       0.00000000       0.00000000       0.82666667       0.00000000       0.00000000     305.34677124
2
Properties=species:S:1:pos:R:3:forces:R:3 energy=179.44099142294135 pbc="F F F"
Re       0.00000000       0.00000000       0.00000000       0.00000000       0.00000000    -405.61267090
Re       0.00000000       0.00000000       0.88545455       0.00000000       0.00000000     405.61267090
2
Properties=species:S:1:pos:R:3:forces:R:3 energy=154.53310900177652 pbc="F F F"
Re       0.00000000       0.00000000       0.00000000       0.00000000       0.00000000    -433.43725586
Re       0.00000000       0.00000000       0.94424242       0.00000000       0.00000000     433.43725586
2
Properties=species:S:1:pos:R:3:forces:R:3 energy=129.1734291997983 pbc="F F F"
Re       0.00000000       0.00000000       0.00000000       0.00000000       0.00000000    -423.29232788
Re       0.00000000       0.00000000       1.00303030       0.00000000       0.00000000     423.29232788
2
Properties=species:S:1:pos:R:3:forces:R:3 energy=105.37467023986498 pbc="F F F"
Re       0.00000000       0.00000000       0.00000000       0.00000000       0.00000000    -382.84045410
Re       0.00000000       0.00000000       1.06181818       0.00000000       0.00000000     382.84045410
2
Properties=species:S:1:pos:R:3:forces:R:3 energy=84.35948078693156 pbc="F F F"
Re       0.00000000       0.00000000       0.00000000       0.00000000       0.00000000    -330.68420410
Re       0.00000000       0.00000000       1.12060606       0.00000000       0.00000000     330.68420410
2
Properties=species:S:1:pos:R:3:forces:R:3 energy=66.59727463000047 pbc="F F F"
Re       0.00000000       0.00000000       0.00000000       0.00000000       0.00000000    -275.18426514
Re       0.00000000       0.00000000       1.17939394       0.00000000       0.00000000     275.18426514
2
Properties=species:S:1:pos:R:3:forces:R:3 energy=51.63211157634266 pbc="F F F"
Re       0.00000000       0.00000000       0.00000000       0.00000000       0.00000000    -236.33207703
Re       0.00000000       0.00000000       1.23818182       0.00000000       0.00000000     236.33207703
2
Properties=species:S:1:pos:R:3:forces:R:3 energy=38.70102171544363 pbc="F F F"
Re       0.00000000       0.00000000       0.00000000       0.00000000       0.00000000    -204.20071411
Re       0.00000000       0.00000000       1.29696970       0.00000000       0.00000000     204.20071411
2
Properties=species:S:1:pos:R:3:forces:R:3 energy=27.459223238217294 pbc="F F F"
Re       0.00000000       0.00000000       0.00000000       0.00000000       0.00000000    -179.89102173
Re       0.00000000       0.00000000       1.35575758       0.00000000       0.00000000     179.89102173
2
Properties=species:S:1:pos:R:3:forces:R:3 energy=17.468098517560374 pbc="F F F"
Re       0.00000000       0.00000000       0.00000000       0.00000000       0.00000000    -159.62063599
Re       0.00000000       0.00000000       1.41454545       0.00000000       0.00000000     159.62063599
2
Properties=species:S:1:pos:R:3:forces:R:3 energy=8.840305195504603 pbc="F F F"
Re       0.00000000       0.00000000       0.00000000       0.00000000       0.00000000    -132.01359558
Re       0.00000000       0.00000000       1.47333333       0.00000000       0.00000000     132.01359558
2
Properties=species:S:1:pos:R:3:forces:R:3 energy=2.127339882325421 pbc="F F F"
Re       0.00000000       0.00000000       0.00000000       0.00000000       0.00000000     -96.00604248
Re       0.00000000       0.00000000       1.53212121       0.00000000       0.00000000      96.00604248
2
Properties=species:S:1:pos:R:3:forces:R:3 energy=-2.574305011103108 pbc="F F F"
Re       0.00000000       0.00000000       0.00000000       0.00000000       0.00000000     -65.89570618
Re       0.00000000       0.00000000       1.59090909       0.00000000       0.00000000      65.89570618
2
Properties=species:S:1:pos:R:3:forces:R:3 energy=-5.845076987516194 pbc="F F F"
Re       0.00000000       0.00000000       0.00000000       0.00000000       0.00000000     -46.97776794
Re       0.00000000       0.00000000       1.64969697       0.00000000       0.00000000      46.97776794
2
Properties=species:S:1:pos:R:3:forces:R:3 energy=-8.242690973359979 pbc="F F F"
Re       0.00000000       0.00000000       0.00000000       0.00000000       0.00000000     -35.47342682
Re       0.00000000       0.00000000       1.70848485       0.00000000       0.00000000      35.47342682
2
Properties=species:S:1:pos:R:3:forces:R:3 energy=-10.08263122947842 pbc="F F F"
Re       0.00000000       0.00000000       0.00000000       0.00000000       0.00000000     -27.43508148
Re       0.00000000       0.00000000       1.76727273       0.00000000       0.00000000      27.43508148
2
Properties=species:S:1:pos:R:3:forces:R:3 energy=-11.490302012411362 pbc="F F F"
Re       0.00000000       0.00000000       0.00000000       0.00000000       0.00000000     -20.59042740
Re       0.00000000       0.00000000       1.82606061       0.00000000       0.00000000      20.59042740
2
Properties=species:S:1:pos:R:3:forces:R:3 energy=-12.520595786109105 pbc="F F F"
Re       0.00000000       0.00000000       0.00000000       0.00000000       0.00000000     -14.62219048
Re       0.00000000       0.00000000       1.88484848       0.00000000       0.00000000      14.62219048
2
Properties=species:S:1:pos:R:3:forces:R:3 energy=-13.229318944963628 pbc="F F F"
Re       0.00000000       0.00000000       0.00000000       0.00000000       0.00000000      -9.65504169
Re       0.00000000       0.00000000       1.94363636       0.00000000       0.00000000       9.65504169
2
Properties=species:S:1:pos:R:3:forces:R:3 energy=-13.673911502128343 pbc="F F F"
Re       0.00000000       0.00000000       0.00000000       0.00000000       0.00000000      -5.60963011
Re       0.00000000       0.00000000       2.00242424       0.00000000       0.00000000       5.60963011
2
Properties=species:S:1:pos:R:3:forces:R:3 energy=-13.903524792505465 pbc="F F F"
Re       0.00000000       0.00000000       0.00000000       0.00000000       0.00000000      -2.31375718
Re       0.00000000       0.00000000       2.06121212       0.00000000       0.00000000       2.31375718
2
Properties=species:S:1:pos:R:3:forces:R:3 energy=-13.958078586622365 pbc="F F F"
Re       0.00000000       0.00000000       0.00000000       0.00000000       0.00000000       0.36058456
Re       0.00000000       0.00000000       2.12000000       0.00000000       0.00000000      -0.36058456
2
Properties=species:S:1:pos:R:3:forces:R:3 energy=-13.872283761758089 pbc="F F F"
Re       0.00000000       0.00000000       0.00000000       0.00000000       0.00000000       2.46433711
Re       0.00000000       0.00000000       2.17878788       0.00000000       0.00000000      -2.46433711
2
Properties=species:S:1:pos:R:3:forces:R:3 energy=-13.679317119371188 pbc="F F F"
Re       0.00000000       0.00000000       0.00000000       0.00000000       0.00000000       4.00778627
Re       0.00000000       0.00000000       2.23757576       0.00000000       0.00000000      -4.00778627
2
Properties=species:S:1:pos:R:3:forces:R:3 energy=-13.41175613465758 pbc="F F F"
Re       0.00000000       0.00000000       0.00000000       0.00000000       0.00000000       5.00696182
Re       0.00000000       0.00000000       2.29636364       0.00000000       0.00000000      -5.00696182
2
Properties=species:S:1:pos:R:3:forces:R:3 energy=-13.100336638706475 pbc="F F F"
Re       0.00000000       0.00000000       0.00000000       0.00000000       0.00000000       5.51169300
Re       0.00000000       0.00000000       2.35515152       0.00000000       0.00000000      -5.51169300
2
Properties=species:S:1:pos:R:3:forces:R:3 energy=-12.771662618171282 pbc="F F F"
Re       0.00000000       0.00000000       0.00000000       0.00000000       0.00000000       5.61167145
Re       0.00000000       0.00000000       2.41393939       0.00000000       0.00000000      -5.61167145
2
Properties=species:S:1:pos:R:3:forces:R:3 energy=-12.446200650214099 pbc="F F F"
Re       0.00000000       0.00000000       0.00000000       0.00000000       0.00000000       5.42308235
Re       0.00000000       0.00000000       2.47272727       0.00000000       0.00000000      -5.42308235
2
Properties=species:S:1:pos:R:3:forces:R:3 energy=-12.137230501514965 pbc="F F F"
Re       0.00000000       0.00000000       0.00000000       0.00000000       0.00000000       5.07145262
Re       0.00000000       0.00000000       2.53151515       0.00000000       0.00000000      -5.07145262
2
Properties=species:S:1:pos:R:3:forces:R:3 energy=-11.850768015110237 pbc="F F F"
Re       0.00000000       0.00000000       0.00000000       0.00000000       0.00000000       4.67552233
Re       0.00000000       0.00000000       2.59030303       0.00000000       0.00000000      -4.67552233
2
Properties=species:S:1:pos:R:3:forces:R:3 energy=-11.586637570280446 pbc="F F F"
Re       0.00000000       0.00000000       0.00000000       0.00000000       0.00000000       4.32177687
Re       0.00000000       0.00000000       2.64909091       0.00000000       0.00000000      -4.32177687
2
Properties=species:S:1:pos:R:3:forces:R:3 energy=-11.341112476639536 pbc="F F F"
Re       0.00000000       0.00000000       0.00000000       0.00000000       0.00000000       4.04396725
Re       0.00000000       0.00000000       2.70787879       0.00000000       0.00000000      -4.04396725
2
Properties=species:S:1:pos:R:3:forces:R:3 energy=-11.109860195952113 pbc="F F F"
Re       0.00000000       0.00000000       0.00000000       0.00000000       0.00000000       3.83232856
Re       0.00000000       0.00000000       2.76666667       0.00000000       0.00000000      -3.83232856
2
Properties=species:S:1:pos:R:3:forces:R:3 energy=-10.889737869478598 pbc="F F F"
Re       0.00000000       0.00000000       0.00000000       0.00000000       0.00000000       3.66059470
Re       0.00000000       0.00000000       2.82545455       0.00000000       0.00000000      -3.66059470
2
Properties=species:S:1:pos:R:3:forces:R:3 energy=-10.67934101453618 pbc="F F F"
Re       0.00000000       0.00000000       0.00000000       0.00000000       0.00000000       3.49440336
Re       0.00000000       0.00000000       2.88424242       0.00000000       0.00000000      -3.49440336
2
Properties=species:S:1:pos:R:3:forces:R:3 energy=-10.479796942236181 pbc="F F F"
Re       0.00000000       0.00000000       0.00000000       0.00000000       0.00000000       3.28129911
Re       0.00000000       0.00000000       2.94303030       0.00000000       0.00000000      -3.28129911
2
Properties=species:S:1:pos:R:3:forces:R:3 energy=-10.295495748894023 pbc="F F F"
Re       0.00000000       0.00000000       0.00000000       0.00000000       0.00000000       2.97013068
Re       0.00000000       0.00000000       3.00181818       0.00000000       0.00000000      -2.97013068
2
Properties=species:S:1:pos:R:3:forces:R:3 energy=-10.132648440892805 pbc="F F F"
Re       0.00000000       0.00000000       0.00000000       0.00000000       0.00000000       2.55557251
Re       0.00000000       0.00000000       3.06060606       0.00000000       0.00000000      -2.55557251
2
Properties=species:S:1:pos:R:3:forces:R:3 energy=-9.996102861940624 pbc="F F F"
Re       0.00000000       0.00000000       0.00000000       0.00000000       0.00000000       2.08666611
Re       0.00000000       0.00000000       3.11939394       0.00000000       0.00000000      -2.08666611
2
Properties=species:S:1:pos:R:3:forces:R:3 energy=-9.886940106477368 pbc="F F F"
Re       0.00000000       0.00000000       0.00000000       0.00000000       0.00000000       1.63587260
Re       0.00000000       0.00000000       3.17818182       0.00000000       0.00000000      -1.63587260
2
Properties=species:S:1:pos:R:3:forces:R:3 energy=-9.802247473707792 pbc="F F F"
Re       0.00000000       0.00000000       0.00000000       0.00000000       0.00000000       1.26111686
Re       0.00000000       0.00000000       3.23696970       0.00000000       0.00000000      -1.26111686
2
Properties=species:S:1:pos:R:3:forces:R:3 energy=-9.736720964413342 pbc="F F F"
Re       0.00000000       0.00000000       0.00000000       0.00000000       0.00000000       0.98431462
Re       0.00000000       0.00000000       3.29575758       0.00000000       0.00000000      -0.98431462
2
Properties=species:S:1:pos:R:3:forces:R:3 energy=-9.684814146875171 pbc="F F F"
Re       0.00000000       0.00000000       0.00000000       0.00000000       0.00000000       0.79384613
Re       0.00000000       0.00000000       3.35454545       0.00000000       0.00000000      -0.79384613
2
Properties=species:S:1:pos:R:3:forces:R:3 energy=-9.642236804483469 pbc="F F F"
Re       0.00000000       0.00000000       0.00000000       0.00000000       0.00000000       0.66198283
Re       0.00000000       0.00000000       3.41333333       0.00000000       0.00000000      -0.66198283
2
Properties=species:S:1:pos:R:3:forces:R:3 energy=-9.606346309035143 pbc="F F F"
Re       0.00000000       0.00000000       0.00000000       0.00000000       0.00000000       0.56291854
Re       0.00000000       0.00000000       3.47212121       0.00000000       0.00000000      -0.56291854
2
Properties=species:S:1:pos:R:3:forces:R:3 energy=-9.575700971380547 pbc="F F F"
Re       0.00000000       0.00000000       0.00000000       0.00000000       0.00000000       0.48213869
Re       0.00000000       0.00000000       3.53090909       0.00000000       0.00000000      -0.48213869
2
Properties=species:S:1:pos:R:3:forces:R:3 energy=-9.549378810522967 pbc="F F F"
Re       0.00000000       0.00000000       0.00000000       0.00000000       0.00000000       0.41575411
Re       0.00000000       0.00000000       3.58969697       0.00000000       0.00000000      -0.41575411
2
Properties=species:S:1:pos:R:3:forces:R:3 energy=-9.526521488219117 pbc="F F F"
Re       0.00000000       0.00000000       0.00000000       0.00000000       0.00000000       0.36447254
Re       0.00000000       0.00000000       3.64848485       0.00000000       0.00000000      -0.36447254
2
Properties=species:S:1:pos:R:3:forces:R:3 energy=-9.506230928686634 pbc="F F F"
Re       0.00000000       0.00000000       0.00000000       0.00000000       0.00000000       0.32815519
Re       0.00000000       0.00000000       3.70727273       0.00000000       0.00000000      -0.32815519
2
Properties=species:S:1:pos:R:3:forces:R:3 energy=-9.487702522561808 pbc="F F F"
Re       0.00000000       0.00000000       0.00000000       0.00000000       0.00000000       0.30377740
Re       0.00000000       0.00000000       3.76606061       0.00000000       0.00000000      -0.30377740
2
Properties=species:S:1:pos:R:3:forces:R:3 energy=-9.470377873181315 pbc="F F F"
Re       0.00000000       0.00000000       0.00000000       0.00000000       0.00000000       0.28634876
Re       0.00000000       0.00000000       3.82484848       0.00000000       0.00000000      -0.28634876
2
Properties=species:S:1:pos:R:3:forces:R:3 energy=-9.453993586027813 pbc="F F F"
Re       0.00000000       0.00000000       0.00000000       0.00000000       0.00000000       0.27109328
Re       0.00000000       0.00000000       3.88363636       0.00000000       0.00000000      -0.27109328
2
Properties=species:S:1:pos:R:3:forces:R:3 energy=-9.438520106860812 pbc="F F F"
Re       0.00000000       0.00000000       0.00000000       0.00000000       0.00000000       0.25508070
Re       0.00000000       0.00000000       3.94242424       0.00000000       0.00000000      -0.25508070
2
Properties=species:S:1:pos:R:3:forces:R:3 energy=-9.424037763062467 pbc="F F F"
Re       0.00000000       0.00000000       0.00000000       0.00000000       0.00000000       0.23729242
Re       0.00000000       0.00000000       4.00121212       0.00000000       0.00000000      -0.23729242
2
Properties=species:S:1:pos:R:3:forces:R:3 energy=-9.410656883078198 pbc="F F F"
Re       0.00000000       0.00000000       0.00000000       0.00000000       0.00000000       0.21761781
Re       0.00000000       0.00000000       4.06000000       0.00000000       0.00000000      -0.21761781
2
Properties=species:S:1:pos:R:3:forces:R:3 energy=-9.398491017508102 pbc="F F F"
Re       0.00000000       0.00000000       0.00000000       0.00000000       0.00000000       0.19594310
Re       0.00000000       0.00000000       4.11878788       0.00000000       0.00000000      -0.19594310
2
Properties=species:S:1:pos:R:3:forces:R:3 energy=-9.38766362433063 pbc="F F F"
Re       0.00000000       0.00000000       0.00000000       0.00000000       0.00000000       0.17201413
Re       0.00000000       0.00000000       4.17757576       0.00000000       0.00000000      -0.17201413
2
Properties=species:S:1:pos:R:3:forces:R:3 energy=-9.378309218981874 pbc="F F F"
Re       0.00000000       0.00000000       0.00000000       0.00000000       0.00000000       0.14589512
Re       0.00000000       0.00000000       4.23636364       0.00000000       0.00000000      -0.14589512
2
Properties=species:S:1:pos:R:3:forces:R:3 energy=-9.370536808445875 pbc="F F F"
Re       0.00000000       0.00000000       0.00000000       0.00000000       0.00000000       0.11842439
Re       0.00000000       0.00000000       4.29515152       0.00000000       0.00000000      -0.11842439
2
Properties=species:S:1:pos:R:3:forces:R:3 energy=-9.364379745661427 pbc="F F F"
Re       0.00000000       0.00000000       0.00000000       0.00000000       0.00000000       0.09127875
Re       0.00000000       0.00000000       4.35393939       0.00000000       0.00000000      -0.09127875
2
Properties=species:S:1:pos:R:3:forces:R:3 energy=-9.359756391288455 pbc="F F F"
Re       0.00000000       0.00000000       0.00000000       0.00000000       0.00000000       0.06658095
Re       0.00000000       0.00000000       4.41272727       0.00000000       0.00000000      -0.06658095
2
Properties=species:S:1:pos:R:3:forces:R:3 energy=-9.35646448669678 pbc="F F F"
Re       0.00000000       0.00000000       0.00000000       0.00000000       0.00000000       0.04629755
Re       0.00000000       0.00000000       4.47151515       0.00000000       0.00000000      -0.04629755
2
Properties=species:S:1:pos:R:3:forces:R:3 energy=-9.354201120938136 pbc="F F F"
Re       0.00000000       0.00000000       0.00000000       0.00000000       0.00000000       0.03167236
Re       0.00000000       0.00000000       4.53030303       0.00000000       0.00000000      -0.03167236
2
Properties=species:S:1:pos:R:3:forces:R:3 energy=-9.352624662555943 pbc="F F F"
Re       0.00000000       0.00000000       0.00000000       0.00000000       0.00000000       0.02291949
Re       0.00000000       0.00000000       4.58909091       0.00000000       0.00000000      -0.02291949
2
Properties=species:S:1:pos:R:3:forces:R:3 energy=-9.351406349865236 pbc="F F F"
Re       0.00000000       0.00000000       0.00000000       0.00000000       0.00000000       0.01924827
Re       0.00000000       0.00000000       4.64787879       0.00000000       0.00000000      -0.01924827
2
Properties=species:S:1:pos:R:3:forces:R:3 energy=-9.350290128512293 pbc="F F F"
Re       0.00000000       0.00000000       0.00000000       0.00000000       0.00000000       0.01918746
Re       0.00000000       0.00000000       4.70666667       0.00000000       0.00000000      -0.01918746
2
Properties=species:S:1:pos:R:3:forces:R:3 energy=-9.34911174396789 pbc="F F F"
Re       0.00000000       0.00000000       0.00000000       0.00000000       0.00000000       0.02110022
Re       0.00000000       0.00000000       4.76545455       0.00000000       0.00000000      -0.02110022
2
Properties=species:S:1:pos:R:3:forces:R:3 energy=-9.347796812003923 pbc="F F F"
Re       0.00000000       0.00000000       0.00000000       0.00000000       0.00000000       0.02368554
Re       0.00000000       0.00000000       4.82424242       0.00000000       0.00000000      -0.02368554
2
Properties=species:S:1:pos:R:3:forces:R:3 energy=-9.346327357728946 pbc="F F F"
Re       0.00000000       0.00000000       0.00000000       0.00000000       0.00000000       0.02628806
Re       0.00000000       0.00000000       4.88303030       0.00000000       0.00000000      -0.02628806
2
Properties=species:S:1:pos:R:3:forces:R:3 energy=-9.344705408069586 pbc="F F F"
Re       0.00000000       0.00000000       0.00000000       0.00000000       0.00000000       0.02891058
Re       0.00000000       0.00000000       4.94181818       0.00000000       0.00000000      -0.02891058
2
Properties=species:S:1:pos:R:3:forces:R:3 energy=-9.34291959733035 pbc="F F F"
Re       0.00000000       0.00000000       0.00000000       0.00000000       0.00000000       0.03198328
Re       0.00000000       0.00000000       5.00060606       0.00000000       0.00000000      -0.03198328
2
Properties=species:S:1:pos:R:3:forces:R:3 energy=-9.340926068364723 pbc="F F F"
Re       0.00000000       0.00000000       0.00000000       0.00000000       0.00000000       0.03605150
Re       0.00000000       0.00000000       5.05939394       0.00000000       0.00000000      -0.03605150
2
Properties=species:S:1:pos:R:3:forces:R:3 energy=-9.33865307938782 pbc="F F F"
Re       0.00000000       0.00000000       0.00000000       0.00000000       0.00000000       0.04150360
Re       0.00000000       0.00000000       5.11818182       0.00000000       0.00000000      -0.04150360
2
Properties=species:S:1:pos:R:3:forces:R:3 energy=-9.336019104781462 pbc="F F F"
Re       0.00000000       0.00000000       0.00000000       0.00000000       0.00000000       0.04830267
Re       0.00000000       0.00000000       5.17696970       0.00000000       0.00000000      -0.04830267
2
Properties=species:S:1:pos:R:3:forces:R:3 energy=-9.332961423148916 pbc="F F F"
Re       0.00000000       0.00000000       0.00000000       0.00000000       0.00000000       0.05573439
Re       0.00000000       0.00000000       5.23575758       0.00000000       0.00000000      -0.05573439
2
Properties=species:S:1:pos:R:3:forces:R:3 energy=-9.329474147078136 pbc="F F F"
Re       0.00000000       0.00000000       0.00000000       0.00000000       0.00000000       0.06280404
Re       0.00000000       0.00000000       5.29454545       0.00000000       0.00000000      -0.06280404
2
Properties=species:S:1:pos:R:3:forces:R:3 energy=-9.325575861571435 pbc="F F F"
Re       0.00000000       0.00000000       0.00000000       0.00000000       0.00000000       0.07004724
Re       0.00000000       0.00000000       5.35333333       0.00000000       0.00000000      -0.07004724
2
Properties=species:S:1:pos:R:3:forces:R:3 energy=-9.321188409204833 pbc="F F F"
Re       0.00000000       0.00000000       0.00000000       0.00000000       0.00000000       0.07964895
Re       0.00000000       0.00000000       5.41212121       0.00000000       0.00000000      -0.07964895
2
Properties=species:S:1:pos:R:3:forces:R:3 energy=-9.316207469947008 pbc="F F F"
Re       0.00000000       0.00000000       0.00000000       0.00000000       0.00000000       0.08914164
Re       0.00000000       0.00000000       5.47090909       0.00000000       0.00000000      -0.08914164
2
Properties=species:S:1:pos:R:3:forces:R:3 energy=-9.310867839013339 pbc="F F F"
Re       0.00000000       0.00000000       0.00000000       0.00000000       0.00000000       0.09068637
Re       0.00000000       0.00000000       5.52969697       0.00000000       0.00000000      -0.09068637
2
Properties=species:S:1:pos:R:3:forces:R:3 energy=-9.30575297944817 pbc="F F F"
Re       0.00000000       0.00000000       0.00000000       0.00000000       0.00000000       0.08197391
Re       0.00000000       0.00000000       5.58848485       0.00000000       0.00000000      -0.08197391
2
Properties=species:S:1:pos:R:3:forces:R:3 energy=-9.301297169285608 pbc="F F F"
Re       0.00000000       0.00000000       0.00000000       0.00000000       0.00000000       0.06998847
Re       0.00000000       0.00000000       5.64727273       0.00000000       0.00000000      -0.06998847
2
Properties=species:S:1:pos:R:3:forces:R:3 energy=-9.297412657657404 pbc="F F F"
Re       0.00000000       0.00000000       0.00000000       0.00000000       0.00000000       0.06350029
Re       0.00000000       0.00000000       5.70606061       0.00000000       0.00000000      -0.06350029
2
Properties=species:S:1:pos:R:3:forces:R:3 energy=-9.293682367193492 pbc="F F F"
Re       0.00000000       0.00000000       0.00000000       0.00000000       0.00000000       0.06377584
Re       0.00000000       0.00000000       5.76484848       0.00000000       0.00000000      -0.06377584
2
Properties=species:S:1:pos:R:3:forces:R:3 energy=-9.28999598370365 pbc="F F F"
Re       0.00000000       0.00000000       0.00000000       0.00000000       0.00000000       0.05972419
Re       0.00000000       0.00000000       5.82363636       0.00000000       0.00000000      -0.05972419
2
Properties=species:S:1:pos:R:3:forces:R:3 energy=-9.286946710035703 pbc="F F F"
Re       0.00000000       0.00000000       0.00000000       0.00000000       0.00000000       0.04247009
Re       0.00000000       0.00000000       5.88242424       0.00000000       0.00000000      -0.04247009
2
Properties=species:S:1:pos:R:3:forces:R:3 energy=-9.285064587952869 pbc="F F F"
Re       0.00000000       0.00000000       0.00000000       0.00000000       0.00000000       0.02230149
Re       0.00000000       0.00000000       5.94121212       0.00000000       0.00000000      -0.02230149
2
Properties=species:S:1:pos:R:3:forces:R:3 energy=-9.2840907282203 pbc="F F F"
Re       0.00000000       0.00000000       0.00000000       0.00000000       0.00000000       0.01352419
Re       0.00000000       0.00000000       6.00000000       0.00000000       0.00000000      -0.01352419
