2
Properties=species:S:1:pos:R:3:forces:R:3 energy=34661.59195512439 pbc="F F F"
Ru       0.00000000       0.00000000       0.00000000       0.00000000       0.00000000 -820392.93750000
Ru       0.00000000       0.00000000       0.10000000       0.00000000       0.00000000  820392.93750000
2
Properties=species:S:1:pos:R:3:forces:R:3 energy=10396.93277543689 pbc="F F F"
Ru       0.00000000       0.00000000       0.00000000       0.00000000       0.00000000 -181634.14062500
Ru       0.00000000       0.00000000       0.15959596       0.00000000       0.00000000  181634.14062500
2
Properties=species:S:1:pos:R:3:forces:R:3 energy=4098.337072311891 pbc="F F F"
Ru       0.00000000       0.00000000       0.00000000       0.00000000       0.00000000  -57547.01171875
Ru       0.00000000       0.00000000       0.21919192       0.00000000       0.00000000   57547.01171875
2
Properties=species:S:1:pos:R:3:forces:R:3 energy=1910.6506709478706 pbc="F F F"
Ru       0.00000000       0.00000000       0.00000000       0.00000000       0.00000000  -22292.21093750
Ru       0.00000000       0.00000000       0.27878788       0.00000000       0.00000000   22292.21093750
2
Properties=species:S:1:pos:R:3:forces:R:3 energy=1013.660314502558 pbc="F F F"
Ru       0.00000000       0.00000000       0.00000000       0.00000000       0.00000000   -9759.36230469
Ru       0.00000000       0.00000000       0.33838384       0.00000000       0.00000000    9759.36230469
2
Properties=species:S:1:pos:R:3:forces:R:3 energy=605.6975459542061 pbc="F F F"
Ru       0.00000000       0.00000000       0.00000000       0.00000000       0.00000000   -4640.83007812
Ru       0.00000000       0.00000000       0.39797980       0.00000000       0.00000000    4640.83007812
2
Properties=species:S:1:pos:R:3:forces:R:3 energy=405.8042964551587 pbc="F F F"
Ru       0.00000000       0.00000000       0.00000000       0.00000000       0.00000000   -2358.48413086
Ru       0.00000000       0.00000000       0.45757576       0.00000000       0.00000000    2358.48413086
2
Properties=species:S:1:pos:R:3:forces:R:3 energy=301.2089900871847 pbc="F F F"
Ru       0.00000000       0.00000000       0.00000000       0.00000000       0.00000000   -1281.33129883
Ru       0.00000000       0.00000000       0.51717172       0.00000000       0.00000000    1281.33129883
2
Properties=species:S:1:pos:R:3:forces:R:3 energy=242.35610012005358 pbc="F F F"
Ru       0.00000000       0.00000000       0.00000000       0.00000000       0.00000000    -755.03320312
Ru       0.00000000       0.00000000       0.57676768       0.00000000       0.00000000     755.03320312
2
Properties=species:S:1:pos:R:3:forces:R:3 energy=206.04353916092506 pbc="F F F"
Ru       0.00000000       0.00000000       0.00000000       0.00000000       0.00000000    -493.68072510
Ru       0.00000000       0.00000000       0.63636364       0.00000000       0.00000000     493.68072510
2
Properties=species:S:1:pos:R:3:forces:R:3 energy=180.96005845584483 pbc="F F F"
Ru       0.00000000       0.00000000       0.00000000       0.00000000       0.00000000    -362.95034790
Ru       0.00000000       0.00000000       0.69595960       0.00000000       0.00000000     362.95034790
2
Properties=species:S:1:pos:R:3:forces:R:3 energy=161.51483770181636 pbc="F F F"
Ru       0.00000000       0.00000000       0.00000000       0.00000000       0.00000000    -297.33322144
Ru       0.00000000       0.00000000       0.75555556       0.00000000       0.00000000     297.33322144
2
Properties=species:S:1:pos:R:3:forces:R:3 energy=144.74902988461943 pbc="F F F"
Ru       0.00000000       0.00000000       0.00000000       0.00000000       0.00000000    -271.33932495
Ru       0.00000000       0.00000000       0.81515152       0.00000000       0.00000000     271.33932495
2
Properties=species:S:1:pos:R:3:forces:R:3 energy=128.4942237873851 pbc="F F F"
Ru       0.00000000       0.00000000       0.00000000       0.00000000       0.00000000    -278.49917603
Ru       0.00000000       0.00000000       0.87474747       0.00000000       0.00000000     278.49917603
2
Properties=species:S:1:pos:R:3:forces:R:3 energy=111.47200758606066 pbc="F F F"
Ru       0.00000000       0.00000000       0.00000000       0.00000000       0.00000000    -290.29849243
Ru       0.00000000       0.00000000       0.93434343       0.00000000       0.00000000     290.29849243
2
Properties=species:S:1:pos:R:3:forces:R:3 energy=94.0838553271869 pbc="F F F"
Ru       0.00000000       0.00000000       0.00000000       0.00000000       0.00000000    -293.92611694
Ru       0.00000000       0.00000000       0.99393939       0.00000000       0.00000000     293.92611694
2
Properties=species:S:1:pos:R:3:forces:R:3 energy=76.21975122081874 pbc="F F F"
Ru       0.00000000       0.00000000       0.00000000       0.00000000       0.00000000    -301.08953857
Ru       0.00000000       0.00000000       1.05353535       0.00000000       0.00000000     301.08953857
2
Properties=species:S:1:pos:R:3:forces:R:3 energy=59.022494717257494 pbc="F F F"
Ru       0.00000000       0.00000000       0.00000000       0.00000000       0.00000000    -272.18978882
Ru       0.00000000       0.00000000       1.11313131       0.00000000       0.00000000     272.18978882
2
Properties=species:S:1:pos:R:3:forces:R:3 energy=44.015431861971294 pbc="F F F"
Ru       0.00000000       0.00000000       0.00000000       0.00000000       0.00000000    -230.03845215
Ru       0.00000000       0.00000000       1.17272727       0.00000000       0.00000000     230.03845215
2
Properties=species:S:1:pos:R:3:forces:R:3 energy=31.800460965528913 pbc="F F F"
Ru       0.00000000       0.00000000       0.00000000       0.00000000       0.00000000    -178.56950378
Ru       0.00000000       0.00000000       1.23232323       0.00000000       0.00000000     178.56950378
2
Properties=species:S:1:pos:R:3:forces:R:3 energy=22.619187925981525 pbc="F F F"
Ru       0.00000000       0.00000000       0.00000000       0.00000000       0.00000000    -133.02398682
Ru       0.00000000       0.00000000       1.29191919       0.00000000       0.00000000     133.02398682
2
Properties=species:S:1:pos:R:3:forces:R:3 energy=15.49715611144304 pbc="F F F"
Ru       0.00000000       0.00000000       0.00000000       0.00000000       0.00000000    -108.58065033
Ru       0.00000000       0.00000000       1.35151515       0.00000000       0.00000000     108.58065033
2
Properties=species:S:1:pos:R:3:forces:R:3 energy=9.534684620674192 pbc="F F F"
Ru       0.00000000       0.00000000       0.00000000       0.00000000       0.00000000     -91.52811432
Ru       0.00000000       0.00000000       1.41111111       0.00000000       0.00000000      91.52811432
2
Properties=species:S:1:pos:R:3:forces:R:3 energy=4.679802236707836 pbc="F F F"
Ru       0.00000000       0.00000000       0.00000000       0.00000000       0.00000000     -70.58313751
Ru       0.00000000       0.00000000       1.47070707       0.00000000       0.00000000      70.58313751
2
Properties=species:S:1:pos:R:3:forces:R:3 energy=1.1025538513632256 pbc="F F F"
Ru       0.00000000       0.00000000       0.00000000       0.00000000       0.00000000     -50.60839081
Ru       0.00000000       0.00000000       1.53030303       0.00000000       0.00000000      50.60839081
2
Properties=species:S:1:pos:R:3:forces:R:3 energy=-1.5127365691044388 pbc="F F F"
Ru       0.00000000       0.00000000       0.00000000       0.00000000       0.00000000     -38.22384262
Ru       0.00000000       0.00000000       1.58989899       0.00000000       0.00000000      38.22384262
2
Properties=species:S:1:pos:R:3:forces:R:3 energy=-3.526179376949159 pbc="F F F"
Ru       0.00000000       0.00000000       0.00000000       0.00000000       0.00000000     -29.63174629
Ru       0.00000000       0.00000000       1.64949495       0.00000000       0.00000000      29.63174629
2
Properties=species:S:1:pos:R:3:forces:R:3 energy=-5.066523306349668 pbc="F F F"
Ru       0.00000000       0.00000000       0.00000000       0.00000000       0.00000000     -22.23435783
Ru       0.00000000       0.00000000       1.70909091       0.00000000       0.00000000      22.23435783
2
Properties=species:S:1:pos:R:3:forces:R:3 energy=-6.201396374643025 pbc="F F F"
Ru       0.00000000       0.00000000       0.00000000       0.00000000       0.00000000     -16.09288406
Ru       0.00000000       0.00000000       1.76868687       0.00000000       0.00000000      16.09288406
2
Properties=species:S:1:pos:R:3:forces:R:3 energy=-7.013852348926374 pbc="F F F"
Ru       0.00000000       0.00000000       0.00000000       0.00000000       0.00000000     -11.40201950
Ru       0.00000000       0.00000000       1.82828283       0.00000000       0.00000000      11.40201950
2
Properties=species:S:1:pos:R:3:forces:R:3 energy=-7.584094554800048 pbc="F F F"
Ru       0.00000000       0.00000000       0.00000000       0.00000000       0.00000000      -7.90031672
Ru       0.00000000       0.00000000       1.88787879       0.00000000       0.00000000       7.90031672
2
Properties=species:S:1:pos:R:3:forces:R:3 energy=-7.97171096341816 pbc="F F F"
Ru       0.00000000       0.00000000       0.00000000       0.00000000       0.00000000      -5.21918821
Ru       0.00000000       0.00000000       1.94747475       0.00000000       0.00000000       5.21918821
2
Properties=species:S:1:pos:R:3:forces:R:3 energy=-8.217365079730339 pbc="F F F"
Ru       0.00000000       0.00000000       0.00000000       0.00000000       0.00000000      -3.10491085
Ru       0.00000000       0.00000000       2.00707071       0.00000000       0.00000000       3.10491085
2
Properties=species:S:1:pos:R:3:forces:R:3 energy=-8.350201621030369 pbc="F F F"
Ru       0.00000000       0.00000000       0.00000000       0.00000000       0.00000000      -1.41595149
Ru       0.00000000       0.00000000       2.06666667       0.00000000       0.00000000       1.41595149
2
Properties=species:S:1:pos:R:3:forces:R:3 energy=-8.392917103270362 pbc="F F F"
Ru       0.00000000       0.00000000       0.00000000       0.00000000       0.00000000      -0.06910782
Ru       0.00000000       0.00000000       2.12626263       0.00000000       0.00000000       0.06910782
2
Properties=species:S:1:pos:R:3:forces:R:3 energy=-8.36401252718235 pbc="F F F"
Ru       0.00000000       0.00000000       0.00000000       0.00000000       0.00000000       0.99703711
Ru       0.00000000       0.00000000       2.18585859       0.00000000       0.00000000      -0.99703711
2
Properties=species:S:1:pos:R:3:forces:R:3 energy=-8.278550750429254 pbc="F F F"
Ru       0.00000000       0.00000000       0.00000000       0.00000000       0.00000000       1.83781600
Ru       0.00000000       0.00000000       2.24545455       0.00000000       0.00000000      -1.83781600
2
Properties=species:S:1:pos:R:3:forces:R:3 energy=-8.148516896501684 pbc="F F F"
Ru       0.00000000       0.00000000       0.00000000       0.00000000       0.00000000       2.49883342
Ru       0.00000000       0.00000000       2.30505051       0.00000000       0.00000000      -2.49883342
2
Properties=species:S:1:pos:R:3:forces:R:3 energy=-7.9837681877156985 pbc="F F F"
Ru       0.00000000       0.00000000       0.00000000       0.00000000       0.00000000       3.00524378
Ru       0.00000000       0.00000000       2.36464646       0.00000000       0.00000000      -3.00524378
2
Properties=species:S:1:pos:R:3:forces:R:3 energy=-7.793229955425513 pbc="F F F"
Ru       0.00000000       0.00000000       0.00000000       0.00000000       0.00000000       3.36499476
Ru       0.00000000       0.00000000       2.42424242       0.00000000       0.00000000      -3.36499476
2
Properties=species:S:1:pos:R:3:forces:R:3 energy=-7.585448438796213 pbc="F F F"
Ru       0.00000000       0.00000000       0.00000000       0.00000000       0.00000000       3.58636689
Ru       0.00000000       0.00000000       2.48383838       0.00000000       0.00000000      -3.58636689
2
Properties=species:S:1:pos:R:3:forces:R:3 energy=-7.36807146072738 pbc="F F F"
Ru       0.00000000       0.00000000       0.00000000       0.00000000       0.00000000       3.69229484
Ru       0.00000000       0.00000000       2.54343434       0.00000000       0.00000000      -3.69229484
2
Properties=species:S:1:pos:R:3:forces:R:3 energy=-7.1468559313021975 pbc="F F F"
Ru       0.00000000       0.00000000       0.00000000       0.00000000       0.00000000       3.72291780
Ru       0.00000000       0.00000000       2.60303030       0.00000000       0.00000000      -3.72291780
2
Properties=species:S:1:pos:R:3:forces:R:3 energy=-6.924944318506158 pbc="F F F"
Ru       0.00000000       0.00000000       0.00000000       0.00000000       0.00000000       3.72178245
Ru       0.00000000       0.00000000       2.66262626       0.00000000       0.00000000      -3.72178245
2
Properties=species:S:1:pos:R:3:forces:R:3 energy=-6.703416215649349 pbc="F F F"
Ru       0.00000000       0.00000000       0.00000000       0.00000000       0.00000000       3.71101189
Ru       0.00000000       0.00000000       2.72222222       0.00000000       0.00000000      -3.71101189
2
Properties=species:S:1:pos:R:3:forces:R:3 energy=-6.483051121291167 pbc="F F F"
Ru       0.00000000       0.00000000       0.00000000       0.00000000       0.00000000       3.67793417
Ru       0.00000000       0.00000000       2.78181818       0.00000000       0.00000000      -3.67793417
2
Properties=species:S:1:pos:R:3:forces:R:3 energy=-6.26609445701502 pbc="F F F"
Ru       0.00000000       0.00000000       0.00000000       0.00000000       0.00000000       3.59246254
Ru       0.00000000       0.00000000       2.84141414       0.00000000       0.00000000      -3.59246254
2
Properties=species:S:1:pos:R:3:forces:R:3 energy=-6.056073802896023 pbc="F F F"
Ru       0.00000000       0.00000000       0.00000000       0.00000000       0.00000000       3.44692731
Ru       0.00000000       0.00000000       2.90101010       0.00000000       0.00000000      -3.44692731
2
Properties=species:S:1:pos:R:3:forces:R:3 energy=-5.856019949814969 pbc="F F F"
Ru       0.00000000       0.00000000       0.00000000       0.00000000       0.00000000       3.26282215
Ru       0.00000000       0.00000000       2.96060606       0.00000000       0.00000000      -3.26282215
2
Properties=species:S:1:pos:R:3:forces:R:3 energy=-5.667346245402562 pbc="F F F"
Ru       0.00000000       0.00000000       0.00000000       0.00000000       0.00000000       3.06985497
Ru       0.00000000       0.00000000       3.02020202       0.00000000       0.00000000      -3.06985497
2
Properties=species:S:1:pos:R:3:forces:R:3 energy=-5.4897361855774855 pbc="F F F"
Ru       0.00000000       0.00000000       0.00000000       0.00000000       0.00000000       2.89592099
Ru       0.00000000       0.00000000       3.07979798       0.00000000       0.00000000      -2.89592099
2
Properties=species:S:1:pos:R:3:forces:R:3 energy=-5.3213727276705 pbc="F F F"
Ru       0.00000000       0.00000000       0.00000000       0.00000000       0.00000000       2.76181221
Ru       0.00000000       0.00000000       3.13939394       0.00000000       0.00000000      -2.76181221
2
Properties=species:S:1:pos:R:3:forces:R:3 energy=-5.159675594530581 pbc="F F F"
Ru       0.00000000       0.00000000       0.00000000       0.00000000       0.00000000       2.67087483
Ru       0.00000000       0.00000000       3.19898990       0.00000000       0.00000000      -2.67087483
2
Properties=species:S:1:pos:R:3:forces:R:3 energy=-5.002544161428872 pbc="F F F"
Ru       0.00000000       0.00000000       0.00000000       0.00000000       0.00000000       2.60371685
Ru       0.00000000       0.00000000       3.25858586       0.00000000       0.00000000      -2.60371685
2
Properties=species:S:1:pos:R:3:forces:R:3 energy=-4.84953200607085 pbc="F F F"
Ru       0.00000000       0.00000000       0.00000000       0.00000000       0.00000000       2.52664328
Ru       0.00000000       0.00000000       3.31818182       0.00000000       0.00000000      -2.52664328
2
Properties=species:S:1:pos:R:3:forces:R:3 energy=-4.7022323827697825 pbc="F F F"
Ru       0.00000000       0.00000000       0.00000000       0.00000000       0.00000000       2.40761018
Ru       0.00000000       0.00000000       3.37777778       0.00000000       0.00000000      -2.40761018
2
Properties=species:S:1:pos:R:3:forces:R:3 energy=-4.563761086885077 pbc="F F F"
Ru       0.00000000       0.00000000       0.00000000       0.00000000       0.00000000       2.22904325
Ru       0.00000000       0.00000000       3.43737374       0.00000000       0.00000000      -2.22904325
2
Properties=species:S:1:pos:R:3:forces:R:3 energy=-4.4376905383761835 pbc="F F F"
Ru       0.00000000       0.00000000       0.00000000       0.00000000       0.00000000       1.99359822
Ru       0.00000000       0.00000000       3.49696970       0.00000000       0.00000000      -1.99359822
2
Properties=species:S:1:pos:R:3:forces:R:3 energy=-4.326848755713958 pbc="F F F"
Ru       0.00000000       0.00000000       0.00000000       0.00000000       0.00000000       1.72282338
Ru       0.00000000       0.00000000       3.55656566       0.00000000       0.00000000      -1.72282338
2
Properties=species:S:1:pos:R:3:forces:R:3 energy=-4.232401018199124 pbc="F F F"
Ru       0.00000000       0.00000000       0.00000000       0.00000000       0.00000000       1.44914997
Ru       0.00000000       0.00000000       3.61616162       0.00000000       0.00000000      -1.44914997
2
Properties=species:S:1:pos:R:3:forces:R:3 energy=-4.1535495535872675 pbc="F F F"
Ru       0.00000000       0.00000000       0.00000000       0.00000000       0.00000000       1.20392489
Ru       0.00000000       0.00000000       3.67575758       0.00000000       0.00000000      -1.20392489
2
Properties=species:S:1:pos:R:3:forces:R:3 energy=-4.087923259766905 pbc="F F F"
Ru       0.00000000       0.00000000       0.00000000       0.00000000       0.00000000       1.00752687
Ru       0.00000000       0.00000000       3.73535354       0.00000000       0.00000000      -1.00752687
2
Properties=species:S:1:pos:R:3:forces:R:3 energy=-4.032366342734 pbc="F F F"
Ru       0.00000000       0.00000000       0.00000000       0.00000000       0.00000000       0.86580288
Ru       0.00000000       0.00000000       3.79494949       0.00000000       0.00000000      -0.86580288
2
Properties=species:S:1:pos:R:3:forces:R:3 energy=-3.9837538855305317 pbc="F F F"
Ru       0.00000000       0.00000000       0.00000000       0.00000000       0.00000000       0.77280456
Ru       0.00000000       0.00000000       3.85454545       0.00000000       0.00000000      -0.77280456
2
Properties=species:S:1:pos:R:3:forces:R:3 energy=-3.9395267898439075 pbc="F F F"
Ru       0.00000000       0.00000000       0.00000000       0.00000000       0.00000000       0.71642542
Ru       0.00000000       0.00000000       3.91414141       0.00000000       0.00000000      -0.71642542
2
Properties=species:S:1:pos:R:3:forces:R:3 energy=-3.897894965657159 pbc="F F F"
Ru       0.00000000       0.00000000       0.00000000       0.00000000       0.00000000       0.68362576
Ru       0.00000000       0.00000000       3.97373737       0.00000000       0.00000000      -0.68362576
2
Properties=species:S:1:pos:R:3:forces:R:3 energy=-3.8577925655768697 pbc="F F F"
Ru       0.00000000       0.00000000       0.00000000       0.00000000       0.00000000       0.66359359
Ru       0.00000000       0.00000000       4.03333333       0.00000000       0.00000000      -0.66359359
2
Properties=species:S:1:pos:R:3:forces:R:3 energy=-3.8187011582749526 pbc="F F F"
Ru       0.00000000       0.00000000       0.00000000       0.00000000       0.00000000       0.64863741
Ru       0.00000000       0.00000000       4.09292929       0.00000000       0.00000000      -0.64863741
2
Properties=species:S:1:pos:R:3:forces:R:3 energy=-3.780480991491089 pbc="F F F"
Ru       0.00000000       0.00000000       0.00000000       0.00000000       0.00000000       0.63367617
Ru       0.00000000       0.00000000       4.15252525       0.00000000       0.00000000      -0.63367617
2
Properties=species:S:1:pos:R:3:forces:R:3 energy=-3.7432423386987743 pbc="F F F"
Ru       0.00000000       0.00000000       0.00000000       0.00000000       0.00000000       0.61521399
Ru       0.00000000       0.00000000       4.21212121       0.00000000       0.00000000      -0.61521399
2
Properties=species:S:1:pos:R:3:forces:R:3 energy=-3.707275089596752 pbc="F F F"
Ru       0.00000000       0.00000000       0.00000000       0.00000000       0.00000000       0.59057885
Ru       0.00000000       0.00000000       4.27171717       0.00000000       0.00000000      -0.59057885
2
Properties=species:S:1:pos:R:3:forces:R:3 energy=-3.673013318439487 pbc="F F F"
Ru       0.00000000       0.00000000       0.00000000       0.00000000       0.00000000       0.55775428
Ru       0.00000000       0.00000000       4.33131313       0.00000000       0.00000000      -0.55775428
2
Properties=species:S:1:pos:R:3:forces:R:3 energy=-3.6409803210510865 pbc="F F F"
Ru       0.00000000       0.00000000       0.00000000       0.00000000       0.00000000       0.51569277
Ru       0.00000000       0.00000000       4.39090909       0.00000000       0.00000000      -0.51569277
2
Properties=species:S:1:pos:R:3:forces:R:3 energy=-3.6117222394256463 pbc="F F F"
Ru       0.00000000       0.00000000       0.00000000       0.00000000       0.00000000       0.46483845
Ru       0.00000000       0.00000000       4.45050505       0.00000000       0.00000000      -0.46483845
2
Properties=species:S:1:pos:R:3:forces:R:3 energy=-3.5857079299237666 pbc="F F F"
Ru       0.00000000       0.00000000       0.00000000       0.00000000       0.00000000       0.40736178
Ru       0.00000000       0.00000000       4.51010101       0.00000000       0.00000000      -0.40736178
2
Properties=species:S:1:pos:R:3:forces:R:3 energy=-3.563226774400879 pbc="F F F"
Ru       0.00000000       0.00000000       0.00000000       0.00000000       0.00000000       0.34694570
Ru       0.00000000       0.00000000       4.56969697       0.00000000       0.00000000      -0.34694570
2
Properties=species:S:1:pos:R:3:forces:R:3 energy=-3.5443225907435036 pbc="F F F"
Ru       0.00000000       0.00000000       0.00000000       0.00000000       0.00000000       0.28812137
Ru       0.00000000       0.00000000       4.62929293       0.00000000       0.00000000      -0.28812137
2
Properties=species:S:1:pos:R:3:forces:R:3 energy=-3.5287645783127357 pbc="F F F"
Ru       0.00000000       0.00000000       0.00000000       0.00000000       0.00000000       0.23534502
Ru       0.00000000       0.00000000       4.68888889       0.00000000       0.00000000      -0.23534502
2
Properties=species:S:1:pos:R:3:forces:R:3 energy=-3.516080404273767 pbc="F F F"
Ru       0.00000000       0.00000000       0.00000000       0.00000000       0.00000000       0.19212654
Ru       0.00000000       0.00000000       4.74848485       0.00000000       0.00000000      -0.19212654
2
Properties=species:S:1:pos:R:3:forces:R:3 energy=-3.5056344690781907 pbc="F F F"
Ru       0.00000000       0.00000000       0.00000000       0.00000000       0.00000000       0.16043752
Ru       0.00000000       0.00000000       4.80808081       0.00000000       0.00000000      -0.16043752
2
Properties=species:S:1:pos:R:3:forces:R:3 energy=-3.49672428775858 pbc="F F F"
Ru       0.00000000       0.00000000       0.00000000       0.00000000       0.00000000       0.14043653
Ru       0.00000000       0.00000000       4.86767677       0.00000000       0.00000000      -0.14043653
2
Properties=species:S:1:pos:R:3:forces:R:3 energy=-3.4886929443022683 pbc="F F F"
Ru       0.00000000       0.00000000       0.00000000       0.00000000       0.00000000       0.13057093
Ru       0.00000000       0.00000000       4.92727273       0.00000000       0.00000000      -0.13057093
2
Properties=species:S:1:pos:R:3:forces:R:3 energy=-3.481015803154236 pbc="F F F"
Ru       0.00000000       0.00000000       0.00000000       0.00000000       0.00000000       0.12801071
Ru       0.00000000       0.00000000       4.98686869       0.00000000       0.00000000      -0.12801071
2
Properties=species:S:1:pos:R:3:forces:R:3 energy=-3.4733571142067534 pbc="F F F"
Ru       0.00000000       0.00000000       0.00000000       0.00000000       0.00000000       0.12943761
Ru       0.00000000       0.00000000       5.04646465       0.00000000       0.00000000      -0.12943761
2
Properties=species:S:1:pos:R:3:forces:R:3 energy=-3.465565634149846 pbc="F F F"
Ru       0.00000000       0.00000000       0.00000000       0.00000000       0.00000000       0.13206787
Ru       0.00000000       0.00000000       5.10606061       0.00000000       0.00000000      -0.13206787
2
Properties=species:S:1:pos:R:3:forces:R:3 energy=-3.4576189838275195 pbc="F F F"
Ru       0.00000000       0.00000000       0.00000000       0.00000000       0.00000000       0.13451158
Ru       0.00000000       0.00000000       5.16565657       0.00000000       0.00000000      -0.13451158
2
Properties=species:S:1:pos:R:3:forces:R:3 energy=-3.449535174354064 pbc="F F F"
Ru       0.00000000       0.00000000       0.00000000       0.00000000       0.00000000       0.13679937
Ru       0.00000000       0.00000000       5.22525253       0.00000000       0.00000000      -0.13679937
2
Properties=species:S:1:pos:R:3:forces:R:3 energy=-3.441316864683879 pbc="F F F"
Ru       0.00000000       0.00000000       0.00000000       0.00000000       0.00000000       0.13885319
Ru       0.00000000       0.00000000       5.28484848       0.00000000       0.00000000      -0.13885319
2
Properties=species:S:1:pos:R:3:forces:R:3 energy=-3.433048032009786 pbc="F F F"
Ru       0.00000000       0.00000000       0.00000000       0.00000000       0.00000000       0.13754794
Ru       0.00000000       0.00000000       5.34444444       0.00000000       0.00000000      -0.13754794
2
Properties=species:S:1:pos:R:3:forces:R:3 energy=-3.4251407381602164 pbc="F F F"
Ru       0.00000000       0.00000000       0.00000000       0.00000000       0.00000000       0.12527665
Ru       0.00000000       0.00000000       5.40404040       0.00000000       0.00000000      -0.12527665
2
Properties=species:S:1:pos:R:3:forces:R:3 energy=-3.418413915436273 pbc="F F F"
Ru       0.00000000       0.00000000       0.00000000       0.00000000       0.00000000       0.09880827
Ru       0.00000000       0.00000000       5.46363636       0.00000000       0.00000000      -0.09880827
2
Properties=species:S:1:pos:R:3:forces:R:3 energy=-3.4133383171464677 pbc="F F F"
Ru       0.00000000       0.00000000       0.00000000       0.00000000       0.00000000       0.07339870
Ru       0.00000000       0.00000000       5.52323232       0.00000000       0.00000000      -0.07339870
2
Properties=species:S:1:pos:R:3:forces:R:3 energy=-3.4094326952127 pbc="F F F"
Ru       0.00000000       0.00000000       0.00000000       0.00000000       0.00000000       0.05901101
Ru       0.00000000       0.00000000       5.58282828       0.00000000       0.00000000      -0.05901101
2
Properties=species:S:1:pos:R:3:forces:R:3 energy=-3.406226772811247 pbc="F F F"
Ru       0.00000000       0.00000000       0.00000000       0.00000000       0.00000000       0.04896105
Ru       0.00000000       0.00000000       5.64242424       0.00000000       0.00000000      -0.04896105
2
Properties=species:S:1:pos:R:3:forces:R:3 energy=-3.4034904596619477 pbc="F F F"
Ru       0.00000000       0.00000000       0.00000000       0.00000000       0.00000000       0.04471596
Ru       0.00000000       0.00000000       5.70202020       0.00000000       0.00000000      -0.04471596
2
Properties=species:S:1:pos:R:3:forces:R:3 energy=-3.4005291160107305 pbc="F F F"
Ru       0.00000000       0.00000000       0.00000000       0.00000000       0.00000000       0.05828700
Ru       0.00000000       0.00000000       5.76161616       0.00000000       0.00000000      -0.05828700
2
Properties=species:S:1:pos:R:3:forces:R:3 energy=-3.3963869308051873 pbc="F F F"
Ru       0.00000000       0.00000000       0.00000000       0.00000000       0.00000000       0.07797270
Ru       0.00000000       0.00000000       5.82121212       0.00000000       0.00000000      -0.07797270
2
Properties=species:S:1:pos:R:3:forces:R:3 energy=-3.3919622473560955 pbc="F F F"
Ru       0.00000000       0.00000000       0.00000000       0.00000000       0.00000000       0.06415038
Ru       0.00000000       0.00000000       5.88080808       0.00000000       0.00000000      -0.06415038
2
Properties=species:S:1:pos:R:3:forces:R:3 energy=-3.3891931175516503 pbc="F F F"
Ru       0.00000000       0.00000000       0.00000000       0.00000000       0.00000000       0.02784657
Ru       0.00000000       0.00000000       5.94040404       0.00000000       0.00000000      -0.02784657
2
Properties=species:S:1:pos:R:3:forces:R:3 energy=-3.388227788174554 pbc="F F F"
Ru       0.00000000       0.00000000       0.00000000       0.00000000       0.00000000       0.01020642
Ru       0.00000000       0.00000000       6.00000000       0.00000000       0.00000000      -0.01020642
