2
Properties=species:S:1:pos:R:3:forces:R:3 energy=7384.649084030641 pbc="F F F"
Ru       0.00000000       0.00000000       0.00000000       0.00000000       0.00000000 -118931.90625000
Ru       0.00000000       0.00000000       0.18000000       0.00000000       0.00000000  118931.90625000
2
Properties=species:S:1:pos:R:3:forces:R:3 energy=3138.991125046265 pbc="F F F"
Ru       0.00000000       0.00000000       0.00000000       0.00000000       0.00000000  -41407.84765625
Ru       0.00000000       0.00000000       0.23878788       0.00000000       0.00000000   41407.84765625
2
Properties=species:S:1:pos:R:3:forces:R:3 energy=1544.142736377558 pbc="F F F"
Ru       0.00000000       0.00000000       0.00000000       0.00000000       0.00000000  -16998.01367188
Ru       0.00000000       0.00000000       0.29757576       0.00000000       0.00000000   16998.01367188
2
Properties=species:S:1:pos:R:3:forces:R:3 energy=857.1382808143195 pbc="F F F"
Ru       0.00000000       0.00000000       0.00000000       0.00000000       0.00000000   -7739.70898438
Ru       0.00000000       0.00000000       0.35636364       0.00000000       0.00000000    7739.70898438
2
Properties=species:S:1:pos:R:3:forces:R:3 energy=533.556981995698 pbc="F F F"
Ru       0.00000000       0.00000000       0.00000000       0.00000000       0.00000000   -3793.60302734
Ru       0.00000000       0.00000000       0.41515152       0.00000000       0.00000000    3793.60302734
2
Properties=species:S:1:pos:R:3:forces:R:3 energy=370.40616414044337 pbc="F F F"
Ru       0.00000000       0.00000000       0.00000000       0.00000000       0.00000000   -1980.75439453
Ru       0.00000000       0.00000000       0.47393939       0.00000000       0.00000000    1980.75439453
2
Properties=species:S:1:pos:R:3:forces:R:3 energy=282.6794795986413 pbc="F F F"
Ru       0.00000000       0.00000000       0.00000000       0.00000000       0.00000000   -1106.43762207
Ru       0.00000000       0.00000000       0.53272727       0.00000000       0.00000000    1106.43762207
2
Properties=species:S:1:pos:R:3:forces:R:3 energy=231.84692960683395 pbc="F F F"
Ru       0.00000000       0.00000000       0.00000000       0.00000000       0.00000000    -672.55236816
Ru       0.00000000       0.00000000       0.59151515       0.00000000       0.00000000     672.55236816
2
Properties=species:S:1:pos:R:3:forces:R:3 energy=199.4415036638067 pbc="F F F"
Ru       0.00000000       0.00000000       0.00000000       0.00000000       0.00000000    -454.61257935
Ru       0.00000000       0.00000000       0.65030303       0.00000000       0.00000000     454.61257935
2
Properties=species:S:1:pos:R:3:forces:R:3 energy=176.31940297311274 pbc="F F F"
Ru       0.00000000       0.00000000       0.00000000       0.00000000       0.00000000    -344.31582642
Ru       0.00000000       0.00000000       0.70909091       0.00000000       0.00000000     344.31582642
2
Properties=species:S:1:pos:R:3:forces:R:3 energy=157.90381480328276 pbc="F F F"
Ru       0.00000000       0.00000000       0.00000000       0.00000000       0.00000000    -288.98730469
Ru       0.00000000       0.00000000       0.76787879       0.00000000       0.00000000     288.98730469
2
Properties=species:S:1:pos:R:3:forces:R:3 energy=141.63085062985462 pbc="F F F"
Ru       0.00000000       0.00000000       0.00000000       0.00000000       0.00000000    -270.46325684
Ru       0.00000000       0.00000000       0.82666667       0.00000000       0.00000000     270.46325684
2
Properties=species:S:1:pos:R:3:forces:R:3 energy=125.4959328604591 pbc="F F F"
Ru       0.00000000       0.00000000       0.00000000       0.00000000       0.00000000    -281.54769897
Ru       0.00000000       0.00000000       0.88545455       0.00000000       0.00000000     281.54769897
2
Properties=species:S:1:pos:R:3:forces:R:3 energy=108.59527582754366 pbc="F F F"
Ru       0.00000000       0.00000000       0.00000000       0.00000000       0.00000000    -290.86444092
Ru       0.00000000       0.00000000       0.94424242       0.00000000       0.00000000     290.86444092
2
Properties=species:S:1:pos:R:3:forces:R:3 energy=91.40445026684002 pbc="F F F"
Ru       0.00000000       0.00000000       0.00000000       0.00000000       0.00000000    -295.66204834
Ru       0.00000000       0.00000000       1.00303030       0.00000000       0.00000000     295.66204834
2
Properties=species:S:1:pos:R:3:forces:R:3 energy=73.73505596681429 pbc="F F F"
Ru       0.00000000       0.00000000       0.00000000       0.00000000       0.00000000    -298.73532104
Ru       0.00000000       0.00000000       1.06181818       0.00000000       0.00000000     298.73532104
2
Properties=species:S:1:pos:R:3:forces:R:3 energy=57.00584377910495 pbc="F F F"
Ru       0.00000000       0.00000000       0.00000000       0.00000000       0.00000000    -267.35989380
Ru       0.00000000       0.00000000       1.12060606       0.00000000       0.00000000     267.35989380
2
Properties=species:S:1:pos:R:3:forces:R:3 energy=42.49932646354159 pbc="F F F"
Ru       0.00000000       0.00000000       0.00000000       0.00000000       0.00000000    -224.74967957
Ru       0.00000000       0.00000000       1.17939394       0.00000000       0.00000000     224.74967957
2
Properties=species:S:1:pos:R:3:forces:R:3 energy=30.769726237931586 pbc="F F F"
Ru       0.00000000       0.00000000       0.00000000       0.00000000       0.00000000    -173.32289124
Ru       0.00000000       0.00000000       1.23818182       0.00000000       0.00000000     173.32289124
2
Properties=species:S:1:pos:R:3:forces:R:3 energy=21.95449059566901 pbc="F F F"
Ru       0.00000000       0.00000000       0.00000000       0.00000000       0.00000000    -130.24308777
Ru       0.00000000       0.00000000       1.29696970       0.00000000       0.00000000     130.24308777
2
Properties=species:S:1:pos:R:3:forces:R:3 energy=15.039245906344638 pbc="F F F"
Ru       0.00000000       0.00000000       0.00000000       0.00000000       0.00000000    -107.30068207
Ru       0.00000000       0.00000000       1.35575758       0.00000000       0.00000000     107.30068207
2
Properties=species:S:1:pos:R:3:forces:R:3 energy=9.222139183263975 pbc="F F F"
Ru       0.00000000       0.00000000       0.00000000       0.00000000       0.00000000     -90.47567749
Ru       0.00000000       0.00000000       1.41454545       0.00000000       0.00000000      90.47567749
2
Properties=species:S:1:pos:R:3:forces:R:3 energy=4.49571861805924 pbc="F F F"
Ru       0.00000000       0.00000000       0.00000000       0.00000000       0.00000000     -69.59004211
Ru       0.00000000       0.00000000       1.47333333       0.00000000       0.00000000      69.59004211
2
Properties=species:S:1:pos:R:3:forces:R:3 energy=1.0109646729597486 pbc="F F F"
Ru       0.00000000       0.00000000       0.00000000       0.00000000       0.00000000     -50.12299728
Ru       0.00000000       0.00000000       1.53212121       0.00000000       0.00000000      50.12299728
2
Properties=species:S:1:pos:R:3:forces:R:3 energy=-1.551262923572756 pbc="F F F"
Ru       0.00000000       0.00000000       0.00000000       0.00000000       0.00000000     -38.06011200
Ru       0.00000000       0.00000000       1.59090909       0.00000000       0.00000000      38.06011200
2
Properties=species:S:1:pos:R:3:forces:R:3 energy=-3.532164351023013 pbc="F F F"
Ru       0.00000000       0.00000000       0.00000000       0.00000000       0.00000000     -29.60498619
Ru       0.00000000       0.00000000       1.64969697       0.00000000       0.00000000      29.60498619
2
Properties=species:S:1:pos:R:3:forces:R:3 energy=-5.053027536316509 pbc="F F F"
Ru       0.00000000       0.00000000       0.00000000       0.00000000       0.00000000     -22.30400085
Ru       0.00000000       0.00000000       1.70848485       0.00000000       0.00000000      22.30400085
2
Properties=species:S:1:pos:R:3:forces:R:3 energy=-6.178549639372159 pbc="F F F"
Ru       0.00000000       0.00000000       0.00000000       0.00000000       0.00000000     -16.22150612
Ru       0.00000000       0.00000000       1.76727273       0.00000000       0.00000000      16.22150612
2
Properties=species:S:1:pos:R:3:forces:R:3 energy=-6.988345681274685 pbc="F F F"
Ru       0.00000000       0.00000000       0.00000000       0.00000000       0.00000000     -11.55316067
Ru       0.00000000       0.00000000       1.82606061       0.00000000       0.00000000      11.55316067
2
Properties=species:S:1:pos:R:3:forces:R:3 energy=-7.559920089308989 pbc="F F F"
Ru       0.00000000       0.00000000       0.00000000       0.00000000       0.00000000      -8.05579567
Ru       0.00000000       0.00000000       1.88484848       0.00000000       0.00000000       8.05579567
2
Properties=species:S:1:pos:R:3:forces:R:3 energy=-7.951384931757703 pbc="F F F"
Ru       0.00000000       0.00000000       0.00000000       0.00000000       0.00000000      -5.37276554
Ru       0.00000000       0.00000000       1.94363636       0.00000000       0.00000000       5.37276554
2
Properties=species:S:1:pos:R:3:forces:R:3 energy=-8.20259337716934 pbc="F F F"
Ru       0.00000000       0.00000000       0.00000000       0.00000000       0.00000000      -3.25312567
Ru       0.00000000       0.00000000       2.00242424       0.00000000       0.00000000       3.25312567
2
Properties=species:S:1:pos:R:3:forces:R:3 energy=-8.34209951115708 pbc="F F F"
Ru       0.00000000       0.00000000       0.00000000       0.00000000       0.00000000      -1.55528724
Ru       0.00000000       0.00000000       2.06121212       0.00000000       0.00000000       1.55528724
2
Properties=species:S:1:pos:R:3:forces:R:3 energy=-8.392088005493324 pbc="F F F"
Ru       0.00000000       0.00000000       0.00000000       0.00000000       0.00000000      -0.19645219
Ru       0.00000000       0.00000000       2.12000000       0.00000000       0.00000000       0.19645219
2
Properties=species:S:1:pos:R:3:forces:R:3 energy=-8.370663867648917 pbc="F F F"
Ru       0.00000000       0.00000000       0.00000000       0.00000000       0.00000000       0.88336170
Ru       0.00000000       0.00000000       2.17878788       0.00000000       0.00000000      -0.88336170
2
Properties=species:S:1:pos:R:3:forces:R:3 energy=-8.29263906956918 pbc="F F F"
Ru       0.00000000       0.00000000       0.00000000       0.00000000       0.00000000       1.73778462
Ru       0.00000000       0.00000000       2.23757576       0.00000000       0.00000000      -1.73778462
2
Properties=species:S:1:pos:R:3:forces:R:3 energy=-8.169851451227018 pbc="F F F"
Ru       0.00000000       0.00000000       0.00000000       0.00000000       0.00000000       2.41244650
Ru       0.00000000       0.00000000       2.29636364       0.00000000       0.00000000      -2.41244650
2
Properties=species:S:1:pos:R:3:forces:R:3 energy=-8.011971420269706 pbc="F F F"
Ru       0.00000000       0.00000000       0.00000000       0.00000000       0.00000000       2.93448782
Ru       0.00000000       0.00000000       2.35515152       0.00000000       0.00000000      -2.93448782
2
Properties=species:S:1:pos:R:3:forces:R:3 energy=-7.827637579966403 pbc="F F F"
Ru       0.00000000       0.00000000       0.00000000       0.00000000       0.00000000       3.31306005
Ru       0.00000000       0.00000000       2.41393939       0.00000000       0.00000000      -3.31306005
2
Properties=species:S:1:pos:R:3:forces:R:3 energy=-7.625124070588838 pbc="F F F"
Ru       0.00000000       0.00000000       0.00000000       0.00000000       0.00000000       3.55479264
Ru       0.00000000       0.00000000       2.47272727       0.00000000       0.00000000      -3.55479264
2
Properties=species:S:1:pos:R:3:forces:R:3 energy=-7.412001725703571 pbc="F F F"
Ru       0.00000000       0.00000000       0.00000000       0.00000000       0.00000000       3.67861080
Ru       0.00000000       0.00000000       2.53151515       0.00000000       0.00000000      -3.67861080
2
Properties=species:S:1:pos:R:3:forces:R:3 energy=-7.19422481055498 pbc="F F F"
Ru       0.00000000       0.00000000       0.00000000       0.00000000       0.00000000       3.72036219
Ru       0.00000000       0.00000000       2.59030303       0.00000000       0.00000000      -3.72036219
2
Properties=species:S:1:pos:R:3:forces:R:3 energy=-6.975330409578384 pbc="F F F"
Ru       0.00000000       0.00000000       0.00000000       0.00000000       0.00000000       3.72314692
Ru       0.00000000       0.00000000       2.64909091       0.00000000       0.00000000      -3.72314692
2
Properties=species:S:1:pos:R:3:forces:R:3 energy=-6.756669870410306 pbc="F F F"
Ru       0.00000000       0.00000000       0.00000000       0.00000000       0.00000000       3.71460605
Ru       0.00000000       0.00000000       2.70787879       0.00000000       0.00000000      -3.71460605
2
Properties=species:S:1:pos:R:3:forces:R:3 energy=-6.538874944427083 pbc="F F F"
Ru       0.00000000       0.00000000       0.00000000       0.00000000       0.00000000       3.69021964
Ru       0.00000000       0.00000000       2.76666667       0.00000000       0.00000000      -3.69021964
2
Properties=species:S:1:pos:R:3:forces:R:3 energy=-6.323668147586736 pbc="F F F"
Ru       0.00000000       0.00000000       0.00000000       0.00000000       0.00000000       3.62158990
Ru       0.00000000       0.00000000       2.82545455       0.00000000       0.00000000      -3.62158990
2
Properties=species:S:1:pos:R:3:forces:R:3 energy=-6.114260835619955 pbc="F F F"
Ru       0.00000000       0.00000000       0.00000000       0.00000000       0.00000000       3.49301744
Ru       0.00000000       0.00000000       2.88424242       0.00000000       0.00000000      -3.49301744
2
Properties=species:S:1:pos:R:3:forces:R:3 energy=-5.913864285625266 pbc="F F F"
Ru       0.00000000       0.00000000       0.00000000       0.00000000       0.00000000       3.31936765
Ru       0.00000000       0.00000000       2.94303030       0.00000000       0.00000000      -3.31936765
2
Properties=species:S:1:pos:R:3:forces:R:3 energy=-5.7243208453484815 pbc="F F F"
Ru       0.00000000       0.00000000       0.00000000       0.00000000       0.00000000       3.12857676
Ru       0.00000000       0.00000000       3.00181818       0.00000000       0.00000000      -3.12857676
2
Properties=species:S:1:pos:R:3:forces:R:3 energy=-5.545810433522555 pbc="F F F"
Ru       0.00000000       0.00000000       0.00000000       0.00000000       0.00000000       2.94834113
Ru       0.00000000       0.00000000       3.06060606       0.00000000       0.00000000      -2.94834113
2
Properties=species:S:1:pos:R:3:forces:R:3 energy=-5.3769987662259675 pbc="F F F"
Ru       0.00000000       0.00000000       0.00000000       0.00000000       0.00000000       2.80169845
Ru       0.00000000       0.00000000       3.11939394       0.00000000       0.00000000      -2.80169845
2
Properties=species:S:1:pos:R:3:forces:R:3 energy=-5.215531532148757 pbc="F F F"
Ru       0.00000000       0.00000000       0.00000000       0.00000000       0.00000000       2.69848824
Ru       0.00000000       0.00000000       3.17818182       0.00000000       0.00000000      -2.69848824
2
Properties=species:S:1:pos:R:3:forces:R:3 energy=-5.059082250156131 pbc="F F F"
Ru       0.00000000       0.00000000       0.00000000       0.00000000       0.00000000       2.62732005
Ru       0.00000000       0.00000000       3.23696970       0.00000000       0.00000000      -2.62732005
2
Properties=species:S:1:pos:R:3:forces:R:3 energy=-4.906563302367411 pbc="F F F"
Ru       0.00000000       0.00000000       0.00000000       0.00000000       0.00000000       2.55905700
Ru       0.00000000       0.00000000       3.29575758       0.00000000       0.00000000      -2.55905700
2
Properties=species:S:1:pos:R:3:forces:R:3 energy=-4.758799001164655 pbc="F F F"
Ru       0.00000000       0.00000000       0.00000000       0.00000000       0.00000000       2.46054626
Ru       0.00000000       0.00000000       3.35454545       0.00000000       0.00000000      -2.46054626
2
Properties=species:S:1:pos:R:3:forces:R:3 energy=-4.61832394710351 pbc="F F F"
Ru       0.00000000       0.00000000       0.00000000       0.00000000       0.00000000       2.30854249
Ru       0.00000000       0.00000000       3.41333333       0.00000000       0.00000000      -2.30854249
2
Properties=species:S:1:pos:R:3:forces:R:3 energy=-4.488536959739616 pbc="F F F"
Ru       0.00000000       0.00000000       0.00000000       0.00000000       0.00000000       2.09766078
Ru       0.00000000       0.00000000       3.47212121       0.00000000       0.00000000      -2.09766078
2
Properties=species:S:1:pos:R:3:forces:R:3 energy=-4.372582048524255 pbc="F F F"
Ru       0.00000000       0.00000000       0.00000000       0.00000000       0.00000000       1.84176421
Ru       0.00000000       0.00000000       3.53090909       0.00000000       0.00000000      -1.84176421
2
Properties=species:S:1:pos:R:3:forces:R:3 energy=-4.272325780833696 pbc="F F F"
Ru       0.00000000       0.00000000       0.00000000       0.00000000       0.00000000       1.56886315
Ru       0.00000000       0.00000000       3.58969697       0.00000000       0.00000000      -1.56886315
2
Properties=species:S:1:pos:R:3:forces:R:3 energy=-4.187822245335102 pbc="F F F"
Ru       0.00000000       0.00000000       0.00000000       0.00000000       0.00000000       1.31098306
Ru       0.00000000       0.00000000       3.64848485       0.00000000       0.00000000      -1.31098306
2
Properties=species:S:1:pos:R:3:forces:R:3 energy=-4.117390991855235 pbc="F F F"
Ru       0.00000000       0.00000000       0.00000000       0.00000000       0.00000000       1.09328270
Ru       0.00000000       0.00000000       3.70727273       0.00000000       0.00000000      -1.09328270
2
Properties=species:S:1:pos:R:3:forces:R:3 energy=-4.058244924547495 pbc="F F F"
Ru       0.00000000       0.00000000       0.00000000       0.00000000       0.00000000       0.92783523
Ru       0.00000000       0.00000000       3.76606061       0.00000000       0.00000000      -0.92783523
2
Properties=species:S:1:pos:R:3:forces:R:3 energy=-4.0072875379424735 pbc="F F F"
Ru       0.00000000       0.00000000       0.00000000       0.00000000       0.00000000       0.81374097
Ru       0.00000000       0.00000000       3.82484848       0.00000000       0.00000000      -0.81374097
2
Properties=species:S:1:pos:R:3:forces:R:3 energy=-3.96174611234454 pbc="F F F"
Ru       0.00000000       0.00000000       0.00000000       0.00000000       0.00000000       0.74154443
Ru       0.00000000       0.00000000       3.88363636       0.00000000       0.00000000      -0.74154443
2
Properties=species:S:1:pos:R:3:forces:R:3 energy=-3.9195260671968293 pbc="F F F"
Ru       0.00000000       0.00000000       0.00000000       0.00000000       0.00000000       0.69865435
Ru       0.00000000       0.00000000       3.94242424       0.00000000       0.00000000      -0.69865435
2
Properties=species:S:1:pos:R:3:forces:R:3 energy=-3.879259554121865 pbc="F F F"
Ru       0.00000000       0.00000000       0.00000000       0.00000000       0.00000000       0.67334306
Ru       0.00000000       0.00000000       4.00121212       0.00000000       0.00000000      -0.67334306
2
Properties=species:S:1:pos:R:3:forces:R:3 energy=-3.8401910920313274 pbc="F F F"
Ru       0.00000000       0.00000000       0.00000000       0.00000000       0.00000000       0.65662742
Ru       0.00000000       0.00000000       4.06000000       0.00000000       0.00000000      -0.65662742
2
Properties=species:S:1:pos:R:3:forces:R:3 energy=-3.802009326804496 pbc="F F F"
Ru       0.00000000       0.00000000       0.00000000       0.00000000       0.00000000       0.64237881
Ru       0.00000000       0.00000000       4.11878788       0.00000000       0.00000000      -0.64237881
2
Properties=species:S:1:pos:R:3:forces:R:3 energy=-3.7646952378489207 pbc="F F F"
Ru       0.00000000       0.00000000       0.00000000       0.00000000       0.00000000       0.62650907
Ru       0.00000000       0.00000000       4.17757576       0.00000000       0.00000000      -0.62650907
2
Properties=species:S:1:pos:R:3:forces:R:3 energy=-3.7284360729931034 pbc="F F F"
Ru       0.00000000       0.00000000       0.00000000       0.00000000       0.00000000       0.60606873
Ru       0.00000000       0.00000000       4.23636364       0.00000000       0.00000000      -0.60606873
2
Properties=species:S:1:pos:R:3:forces:R:3 energy=-3.6935709700435306 pbc="F F F"
Ru       0.00000000       0.00000000       0.00000000       0.00000000       0.00000000       0.57873166
Ru       0.00000000       0.00000000       4.29515152       0.00000000       0.00000000      -0.57873166
2
Properties=species:S:1:pos:R:3:forces:R:3 energy=-3.6605591552468097 pbc="F F F"
Ru       0.00000000       0.00000000       0.00000000       0.00000000       0.00000000       0.54288489
Ru       0.00000000       0.00000000       4.35393939       0.00000000       0.00000000      -0.54288489
2
Properties=species:S:1:pos:R:3:forces:R:3 energy=-3.629919379466853 pbc="F F F"
Ru       0.00000000       0.00000000       0.00000000       0.00000000       0.00000000       0.49801952
Ru       0.00000000       0.00000000       4.41272727       0.00000000       0.00000000      -0.49801952
2
Properties=species:S:1:pos:R:3:forces:R:3 energy=-3.6021612472984508 pbc="F F F"
Ru       0.00000000       0.00000000       0.00000000       0.00000000       0.00000000       0.44516963
Ru       0.00000000       0.00000000       4.47151515       0.00000000       0.00000000      -0.44516963
2
Properties=species:S:1:pos:R:3:forces:R:3 energy=-3.577682926825287 pbc="F F F"
Ru       0.00000000       0.00000000       0.00000000       0.00000000       0.00000000       0.38699344
Ru       0.00000000       0.00000000       4.53030303       0.00000000       0.00000000      -0.38699344
2
Properties=species:S:1:pos:R:3:forces:R:3 energy=-3.5566883106670417 pbc="F F F"
Ru       0.00000000       0.00000000       0.00000000       0.00000000       0.00000000       0.32740167
Ru       0.00000000       0.00000000       4.58909091       0.00000000       0.00000000      -0.32740167
2
Properties=species:S:1:pos:R:3:forces:R:3 energy=-3.539129735331782 pbc="F F F"
Ru       0.00000000       0.00000000       0.00000000       0.00000000       0.00000000       0.27082479
Ru       0.00000000       0.00000000       4.64787879       0.00000000       0.00000000      -0.27082479
2
Properties=species:S:1:pos:R:3:forces:R:3 energy=-3.52470634479605 pbc="F F F"
Ru       0.00000000       0.00000000       0.00000000       0.00000000       0.00000000       0.22132881
Ru       0.00000000       0.00000000       4.70666667       0.00000000       0.00000000      -0.22132881
2
Properties=species:S:1:pos:R:3:forces:R:3 energy=-3.5129086304296444 pbc="F F F"
Ru       0.00000000       0.00000000       0.00000000       0.00000000       0.00000000       0.18188882
Ru       0.00000000       0.00000000       4.76545455       0.00000000       0.00000000      -0.18188882
2
Properties=species:S:1:pos:R:3:forces:R:3 energy=-3.5030949253456454 pbc="F F F"
Ru       0.00000000       0.00000000       0.00000000       0.00000000       0.00000000       0.15389356
Ru       0.00000000       0.00000000       4.82424242       0.00000000       0.00000000      -0.15389356
2
Properties=species:S:1:pos:R:3:forces:R:3 energy=-3.4945957208642873 pbc="F F F"
Ru       0.00000000       0.00000000       0.00000000       0.00000000       0.00000000       0.13702276
Ru       0.00000000       0.00000000       4.88303030       0.00000000       0.00000000      -0.13702276
2
Properties=species:S:1:pos:R:3:forces:R:3 energy=-3.486802831893719 pbc="F F F"
Ru       0.00000000       0.00000000       0.00000000       0.00000000       0.00000000       0.12939893
Ru       0.00000000       0.00000000       4.94181818       0.00000000       0.00000000      -0.12939893
2
Properties=species:S:1:pos:R:3:forces:R:3 energy=-3.479257106456717 pbc="F F F"
Ru       0.00000000       0.00000000       0.00000000       0.00000000       0.00000000       0.12810385
Ru       0.00000000       0.00000000       5.00060606       0.00000000       0.00000000      -0.12810385
2
Properties=species:S:1:pos:R:3:forces:R:3 energy=-3.4716790288000023 pbc="F F F"
Ru       0.00000000       0.00000000       0.00000000       0.00000000       0.00000000       0.12998021
Ru       0.00000000       0.00000000       5.05939394       0.00000000       0.00000000      -0.12998021
2
Properties=species:S:1:pos:R:3:forces:R:3 energy=-3.463961004468519 pbc="F F F"
Ru       0.00000000       0.00000000       0.00000000       0.00000000       0.00000000       0.13259606
Ru       0.00000000       0.00000000       5.11818182       0.00000000       0.00000000      -0.13259606
2
Properties=species:S:1:pos:R:3:forces:R:3 energy=-3.4560956881799605 pbc="F F F"
Ru       0.00000000       0.00000000       0.00000000       0.00000000       0.00000000       0.13494173
Ru       0.00000000       0.00000000       5.17696970       0.00000000       0.00000000      -0.13494173
2
Properties=species:S:1:pos:R:3:forces:R:3 energy=-3.4480969048842427 pbc="F F F"
Ru       0.00000000       0.00000000       0.00000000       0.00000000       0.00000000       0.13720739
Ru       0.00000000       0.00000000       5.23575758       0.00000000       0.00000000      -0.13720739
2
Properties=species:S:1:pos:R:3:forces:R:3 energy=-3.4399700573492953 pbc="F F F"
Ru       0.00000000       0.00000000       0.00000000       0.00000000       0.00000000       0.13902035
Ru       0.00000000       0.00000000       5.29454545       0.00000000       0.00000000      -0.13902035
2
Properties=species:S:1:pos:R:3:forces:R:3 energy=-3.4318298043208224 pbc="F F F"
Ru       0.00000000       0.00000000       0.00000000       0.00000000       0.00000000       0.13662986
Ru       0.00000000       0.00000000       5.35333333       0.00000000       0.00000000      -0.13662986
2
Properties=species:S:1:pos:R:3:forces:R:3 energy=-3.424141106457507 pbc="F F F"
Ru       0.00000000       0.00000000       0.00000000       0.00000000       0.00000000       0.12238689
Ru       0.00000000       0.00000000       5.41212121       0.00000000       0.00000000      -0.12238689
2
Properties=species:S:1:pos:R:3:forces:R:3 energy=-3.4177102297814477 pbc="F F F"
Ru       0.00000000       0.00000000       0.00000000       0.00000000       0.00000000       0.09522863
Ru       0.00000000       0.00000000       5.47090909       0.00000000       0.00000000      -0.09522863
2
Properties=species:S:1:pos:R:3:forces:R:3 energy=-3.4128696511609227 pbc="F F F"
Ru       0.00000000       0.00000000       0.00000000       0.00000000       0.00000000       0.07137479
Ru       0.00000000       0.00000000       5.52969697       0.00000000       0.00000000      -0.07137479
2
Properties=species:S:1:pos:R:3:forces:R:3 energy=-3.409101674569538 pbc="F F F"
Ru       0.00000000       0.00000000       0.00000000       0.00000000       0.00000000       0.05796427
Ru       0.00000000       0.00000000       5.58848485       0.00000000       0.00000000      -0.05796427
2
Properties=species:S:1:pos:R:3:forces:R:3 energy=-3.40599186856797 pbc="F F F"
Ru       0.00000000       0.00000000       0.00000000       0.00000000       0.00000000       0.04826803
Ru       0.00000000       0.00000000       5.64727273       0.00000000       0.00000000      -0.04826803
2
Properties=species:S:1:pos:R:3:forces:R:3 energy=-3.4033113729828184 pbc="F F F"
Ru       0.00000000       0.00000000       0.00000000       0.00000000       0.00000000       0.04493884
Ru       0.00000000       0.00000000       5.70606061       0.00000000       0.00000000      -0.04493884
2
Properties=species:S:1:pos:R:3:forces:R:3 energy=-3.400332000732444 pbc="F F F"
Ru       0.00000000       0.00000000       0.00000000       0.00000000       0.00000000       0.05965266
Ru       0.00000000       0.00000000       5.76484848       0.00000000       0.00000000      -0.05965266
2
Properties=species:S:1:pos:R:3:forces:R:3 energy=-3.39619077270682 pbc="F F F"
Ru       0.00000000       0.00000000       0.00000000       0.00000000       0.00000000       0.07831869
Ru       0.00000000       0.00000000       5.82363636       0.00000000       0.00000000      -0.07831869
2
Properties=species:S:1:pos:R:3:forces:R:3 energy=-3.391848554905247 pbc="F F F"
Ru       0.00000000       0.00000000       0.00000000       0.00000000       0.00000000       0.06334931
Ru       0.00000000       0.00000000       5.88242424       0.00000000       0.00000000      -0.06334931
2
Properties=species:S:1:pos:R:3:forces:R:3 energy=-3.389174587321446 pbc="F F F"
Ru       0.00000000       0.00000000       0.00000000       0.00000000       0.00000000       0.02741536
Ru       0.00000000       0.00000000       5.94121212       0.00000000       0.00000000      -0.02741536
2
Properties=species:S:1:pos:R:3:forces:R:3 energy=-3.388227788174554 pbc="F F F"
Ru       0.00000000       0.00000000       0.00000000       0.00000000       0.00000000       0.01020642
Ru       0.00000000       0.00000000       6.00000000       0.00000000       0.00000000      -0.01020642
