2
Properties=species:S:1:pos:R:3:forces:R:3 energy=1828.0751540406955 pbc="F F F"
S        0.00000000       0.00000000       0.00000000       0.00000000       0.00000000  -24257.94726562
S        0.00000000       0.00000000       0.18000000       0.00000000       0.00000000   24257.94726562
2
Properties=species:S:1:pos:R:3:forces:R:3 energy=927.478352282883 pbc="F F F"
S        0.00000000       0.00000000       0.00000000       0.00000000       0.00000000   -9251.20898438
S        0.00000000       0.00000000       0.23878788       0.00000000       0.00000000    9251.20898438
2
Properties=species:S:1:pos:R:3:forces:R:3 energy=557.6118972079258 pbc="F F F"
S        0.00000000       0.00000000       0.00000000       0.00000000       0.00000000   -4148.14306641
S        0.00000000       0.00000000       0.29757576       0.00000000       0.00000000    4148.14306641
2
Properties=species:S:1:pos:R:3:forces:R:3 energy=382.36116479555426 pbc="F F F"
S        0.00000000       0.00000000       0.00000000       0.00000000       0.00000000   -2100.17480469
S        0.00000000       0.00000000       0.35636364       0.00000000       0.00000000    2100.17480469
2
Properties=species:S:1:pos:R:3:forces:R:3 energy=288.996571305534 pbc="F F F"
S        0.00000000       0.00000000       0.00000000       0.00000000       0.00000000   -1193.54711914
S        0.00000000       0.00000000       0.41515152       0.00000000       0.00000000    1193.54711914
2
Properties=species:S:1:pos:R:3:forces:R:3 energy=232.61760405522378 pbc="F F F"
S        0.00000000       0.00000000       0.00000000       0.00000000       0.00000000    -778.07995605
S        0.00000000       0.00000000       0.47393939       0.00000000       0.00000000     778.07995605
2
Properties=species:S:1:pos:R:3:forces:R:3 energy=193.18372045475587 pbc="F F F"
S        0.00000000       0.00000000       0.00000000       0.00000000       0.00000000    -587.48120117
S        0.00000000       0.00000000       0.53272727       0.00000000       0.00000000     587.48120117
2
Properties=species:S:1:pos:R:3:forces:R:3 energy=161.85571763910997 pbc="F F F"
S        0.00000000       0.00000000       0.00000000       0.00000000       0.00000000    -483.18264771
S        0.00000000       0.00000000       0.59151515       0.00000000       0.00000000     483.18264771
2
Properties=species:S:1:pos:R:3:forces:R:3 energy=136.7881976844099 pbc="F F F"
S        0.00000000       0.00000000       0.00000000       0.00000000       0.00000000    -367.03826904
S        0.00000000       0.00000000       0.65030303       0.00000000       0.00000000     367.03826904
2
Properties=species:S:1:pos:R:3:forces:R:3 energy=117.1359763024977 pbc="F F F"
S        0.00000000       0.00000000       0.00000000       0.00000000       0.00000000    -317.79791260
S        0.00000000       0.00000000       0.70909091       0.00000000       0.00000000     317.79791260
2
Properties=species:S:1:pos:R:3:forces:R:3 energy=98.99397846448063 pbc="F F F"
S        0.00000000       0.00000000       0.00000000       0.00000000       0.00000000    -299.64129639
S        0.00000000       0.00000000       0.76787879       0.00000000       0.00000000     299.64129639
2
Properties=species:S:1:pos:R:3:forces:R:3 energy=81.86806360237954 pbc="F F F"
S        0.00000000       0.00000000       0.00000000       0.00000000       0.00000000    -276.82888794
S        0.00000000       0.00000000       0.82666667       0.00000000       0.00000000     276.82888794
2
Properties=species:S:1:pos:R:3:forces:R:3 energy=66.7251202199565 pbc="F F F"
S        0.00000000       0.00000000       0.00000000       0.00000000       0.00000000    -237.96487427
S        0.00000000       0.00000000       0.88545455       0.00000000       0.00000000     237.96487427
2
Properties=species:S:1:pos:R:3:forces:R:3 energy=53.7180796256251 pbc="F F F"
S        0.00000000       0.00000000       0.00000000       0.00000000       0.00000000    -206.99221802
S        0.00000000       0.00000000       0.94424242       0.00000000       0.00000000     206.99221802
2
Properties=species:S:1:pos:R:3:forces:R:3 energy=42.48758601008109 pbc="F F F"
S        0.00000000       0.00000000       0.00000000       0.00000000       0.00000000    -173.65263367
S        0.00000000       0.00000000       1.00303030       0.00000000       0.00000000     173.65263367
2
Properties=species:S:1:pos:R:3:forces:R:3 energy=33.19272383277699 pbc="F F F"
S        0.00000000       0.00000000       0.00000000       0.00000000       0.00000000    -144.44796753
S        0.00000000       0.00000000       1.06181818       0.00000000       0.00000000     144.44796753
2
Properties=species:S:1:pos:R:3:forces:R:3 energy=25.334700619627604 pbc="F F F"
S        0.00000000       0.00000000       0.00000000       0.00000000       0.00000000    -123.88819122
S        0.00000000       0.00000000       1.12060606       0.00000000       0.00000000     123.88819122
2
Properties=species:S:1:pos:R:3:forces:R:3 energy=18.516706038589504 pbc="F F F"
S        0.00000000       0.00000000       0.00000000       0.00000000       0.00000000    -108.94126892
S        0.00000000       0.00000000       1.17939394       0.00000000       0.00000000     108.94126892
2
Properties=species:S:1:pos:R:3:forces:R:3 energy=12.483150848416544 pbc="F F F"
S        0.00000000       0.00000000       0.00000000       0.00000000       0.00000000     -96.00724792
S        0.00000000       0.00000000       1.23818182       0.00000000       0.00000000      96.00724792
2
Properties=species:S:1:pos:R:3:forces:R:3 energy=7.318597635848458 pbc="F F F"
S        0.00000000       0.00000000       0.00000000       0.00000000       0.00000000     -78.83541107
S        0.00000000       0.00000000       1.29696970       0.00000000       0.00000000      78.83541107
2
Properties=species:S:1:pos:R:3:forces:R:3 energy=3.262378217347514 pbc="F F F"
S        0.00000000       0.00000000       0.00000000       0.00000000       0.00000000     -59.36040878
S        0.00000000       0.00000000       1.35575758       0.00000000       0.00000000      59.36040878
2
Properties=species:S:1:pos:R:3:forces:R:3 energy=0.26279954307219416 pbc="F F F"
S        0.00000000       0.00000000       0.00000000       0.00000000       0.00000000     -43.54075623
S        0.00000000       0.00000000       1.41454545       0.00000000       0.00000000      43.54075623
2
Properties=species:S:1:pos:R:3:forces:R:3 energy=-1.948545771473319 pbc="F F F"
S        0.00000000       0.00000000       0.00000000       0.00000000       0.00000000     -32.32264328
S        0.00000000       0.00000000       1.47333333       0.00000000       0.00000000      32.32264328
2
Properties=species:S:1:pos:R:3:forces:R:3 energy=-3.5953575075631896 pbc="F F F"
S        0.00000000       0.00000000       0.00000000       0.00000000       0.00000000     -24.08753777
S        0.00000000       0.00000000       1.53212121       0.00000000       0.00000000      24.08753777
2
Properties=species:S:1:pos:R:3:forces:R:3 energy=-4.8178819346125765 pbc="F F F"
S        0.00000000       0.00000000       0.00000000       0.00000000       0.00000000     -17.76606560
S        0.00000000       0.00000000       1.59090909       0.00000000       0.00000000      17.76606560
2
Properties=species:S:1:pos:R:3:forces:R:3 energy=-5.710161896488813 pbc="F F F"
S        0.00000000       0.00000000       0.00000000       0.00000000       0.00000000     -12.77459621
S        0.00000000       0.00000000       1.64969697       0.00000000       0.00000000      12.77459621
2
Properties=species:S:1:pos:R:3:forces:R:3 energy=-6.338484417391171 pbc="F F F"
S        0.00000000       0.00000000       0.00000000       0.00000000       0.00000000      -8.73918533
S        0.00000000       0.00000000       1.70848485       0.00000000       0.00000000       8.73918533
2
Properties=species:S:1:pos:R:3:forces:R:3 energy=-6.75215267266631 pbc="F F F"
S        0.00000000       0.00000000       0.00000000       0.00000000       0.00000000      -5.44464731
S        0.00000000       0.00000000       1.76727273       0.00000000       0.00000000       5.44464731
2
Properties=species:S:1:pos:R:3:forces:R:3 energy=-6.990373217981014 pbc="F F F"
S        0.00000000       0.00000000       0.00000000       0.00000000       0.00000000      -2.74964833
S        0.00000000       0.00000000       1.82606061       0.00000000       0.00000000       2.74964833
2
Properties=species:S:1:pos:R:3:forces:R:3 energy=-7.085057846449917 pbc="F F F"
S        0.00000000       0.00000000       0.00000000       0.00000000       0.00000000      -0.54650325
S        0.00000000       0.00000000       1.88484848       0.00000000       0.00000000       0.54650325
2
Properties=species:S:1:pos:R:3:forces:R:3 energy=-7.062911219727995 pbc="F F F"
S        0.00000000       0.00000000       0.00000000       0.00000000       0.00000000       1.23260415
S        0.00000000       0.00000000       1.94363636       0.00000000       0.00000000      -1.23260415
2
Properties=species:S:1:pos:R:3:forces:R:3 energy=-6.947845565044046 pbc="F F F"
S        0.00000000       0.00000000       0.00000000       0.00000000       0.00000000       2.61787486
S        0.00000000       0.00000000       2.00242424       0.00000000       0.00000000      -2.61787486
2
Properties=species:S:1:pos:R:3:forces:R:3 energy=-6.762369231341039 pbc="F F F"
S        0.00000000       0.00000000       0.00000000       0.00000000       0.00000000       3.63426542
S        0.00000000       0.00000000       2.06121212       0.00000000       0.00000000      -3.63426542
2
Properties=species:S:1:pos:R:3:forces:R:3 energy=-6.5265968006782495 pbc="F F F"
S        0.00000000       0.00000000       0.00000000       0.00000000       0.00000000       4.34367371
S        0.00000000       0.00000000       2.12000000       0.00000000       0.00000000      -4.34367371
2
Properties=species:S:1:pos:R:3:forces:R:3 energy=-6.255572159271153 pbc="F F F"
S        0.00000000       0.00000000       0.00000000       0.00000000       0.00000000       4.85343552
S        0.00000000       0.00000000       2.17878788       0.00000000       0.00000000      -4.85343552
2
Properties=species:S:1:pos:R:3:forces:R:3 energy=-5.957688255981322 pbc="F F F"
S        0.00000000       0.00000000       0.00000000       0.00000000       0.00000000       5.27217054
S        0.00000000       0.00000000       2.23757576       0.00000000       0.00000000      -5.27217054
2
Properties=species:S:1:pos:R:3:forces:R:3 energy=-5.636440918887758 pbc="F F F"
S        0.00000000       0.00000000       0.00000000       0.00000000       0.00000000       5.64954185
S        0.00000000       0.00000000       2.29636364       0.00000000       0.00000000      -5.64954185
2
Properties=species:S:1:pos:R:3:forces:R:3 energy=-5.294932737469412 pbc="F F F"
S        0.00000000       0.00000000       0.00000000       0.00000000       0.00000000       5.94910288
S        0.00000000       0.00000000       2.35515152       0.00000000       0.00000000      -5.94910288
2
Properties=species:S:1:pos:R:3:forces:R:3 energy=-4.940246497314783 pbc="F F F"
S        0.00000000       0.00000000       0.00000000       0.00000000       0.00000000       6.08225155
S        0.00000000       0.00000000       2.41393939       0.00000000       0.00000000      -6.08225155
2
Properties=species:S:1:pos:R:3:forces:R:3 energy=-4.584444684498644 pbc="F F F"
S        0.00000000       0.00000000       0.00000000       0.00000000       0.00000000       5.98141289
S        0.00000000       0.00000000       2.47272727       0.00000000       0.00000000      -5.98141289
2
Properties=species:S:1:pos:R:3:forces:R:3 energy=-4.241519299009322 pbc="F F F"
S        0.00000000       0.00000000       0.00000000       0.00000000       0.00000000       5.65117311
S        0.00000000       0.00000000       2.53151515       0.00000000       0.00000000      -5.65117311
2
Properties=species:S:1:pos:R:3:forces:R:3 energy=-3.9231516585231665 pbc="F F F"
S        0.00000000       0.00000000       0.00000000       0.00000000       0.00000000       5.16083622
S        0.00000000       0.00000000       2.59030303       0.00000000       0.00000000      -5.16083622
2
Properties=species:S:1:pos:R:3:forces:R:3 energy=-3.6360781843512986 pbc="F F F"
S        0.00000000       0.00000000       0.00000000       0.00000000       0.00000000       4.60098362
S        0.00000000       0.00000000       2.64909091       0.00000000       0.00000000      -4.60098362
2
Properties=species:S:1:pos:R:3:forces:R:3 energy=-3.3820791793170533 pbc="F F F"
S        0.00000000       0.00000000       0.00000000       0.00000000       0.00000000       4.04557562
S        0.00000000       0.00000000       2.70787879       0.00000000       0.00000000      -4.04557562
2
Properties=species:S:1:pos:R:3:forces:R:3 energy=-3.159466653826986 pbc="F F F"
S        0.00000000       0.00000000       0.00000000       0.00000000       0.00000000       3.53763390
S        0.00000000       0.00000000       2.76666667       0.00000000       0.00000000      -3.53763390
2
Properties=species:S:1:pos:R:3:forces:R:3 energy=-2.964896268229753 pbc="F F F"
S        0.00000000       0.00000000       0.00000000       0.00000000       0.00000000       3.09243035
S        0.00000000       0.00000000       2.82545455       0.00000000       0.00000000      -3.09243035
2
Properties=species:S:1:pos:R:3:forces:R:3 energy=-2.7946922375349597 pbc="F F F"
S        0.00000000       0.00000000       0.00000000       0.00000000       0.00000000       2.70724511
S        0.00000000       0.00000000       2.88424242       0.00000000       0.00000000      -2.70724511
2
Properties=species:S:1:pos:R:3:forces:R:3 energy=-2.6456194184142086 pbc="F F F"
S        0.00000000       0.00000000       0.00000000       0.00000000       0.00000000       2.37156677
S        0.00000000       0.00000000       2.94303030       0.00000000       0.00000000      -2.37156677
2
Properties=species:S:1:pos:R:3:forces:R:3 energy=-2.5151003373662566 pbc="F F F"
S        0.00000000       0.00000000       0.00000000       0.00000000       0.00000000       2.07442164
S        0.00000000       0.00000000       3.00181818       0.00000000       0.00000000      -2.07442164
2
Properties=species:S:1:pos:R:3:forces:R:3 energy=-2.4011251484889202 pbc="F F F"
S        0.00000000       0.00000000       0.00000000       0.00000000       0.00000000       1.80764854
S        0.00000000       0.00000000       3.06060606       0.00000000       0.00000000      -1.80764854
2
Properties=species:S:1:pos:R:3:forces:R:3 energy=-2.302073018285624 pbc="F F F"
S        0.00000000       0.00000000       0.00000000       0.00000000       0.00000000       1.56605124
S        0.00000000       0.00000000       3.11939394       0.00000000       0.00000000      -1.56605124
2
Properties=species:S:1:pos:R:3:forces:R:3 energy=-2.2165636184092543 pbc="F F F"
S        0.00000000       0.00000000       0.00000000       0.00000000       0.00000000       1.34652960
S        0.00000000       0.00000000       3.17818182       0.00000000       0.00000000      -1.34652960
2
Properties=species:S:1:pos:R:3:forces:R:3 energy=-2.143356710098817 pbc="F F F"
S        0.00000000       0.00000000       0.00000000       0.00000000       0.00000000       1.14729977
S        0.00000000       0.00000000       3.23696970       0.00000000       0.00000000      -1.14729977
2
Properties=species:S:1:pos:R:3:forces:R:3 energy=-2.0812893972476125 pbc="F F F"
S        0.00000000       0.00000000       0.00000000       0.00000000       0.00000000       0.96743965
S        0.00000000       0.00000000       3.29575758       0.00000000       0.00000000      -0.96743965
2
Properties=species:S:1:pos:R:3:forces:R:3 energy=-2.0292377718583023 pbc="F F F"
S        0.00000000       0.00000000       0.00000000       0.00000000       0.00000000       0.80653483
S        0.00000000       0.00000000       3.35454545       0.00000000       0.00000000      -0.80653483
2
Properties=species:S:1:pos:R:3:forces:R:3 energy=-1.9860932622543281 pbc="F F F"
S        0.00000000       0.00000000       0.00000000       0.00000000       0.00000000       0.66436708
S        0.00000000       0.00000000       3.41333333       0.00000000       0.00000000      -0.66436708
2
Properties=species:S:1:pos:R:3:forces:R:3 energy=-1.9507621087254212 pbc="F F F"
S        0.00000000       0.00000000       0.00000000       0.00000000       0.00000000       0.54066223
S        0.00000000       0.00000000       3.47212121       0.00000000       0.00000000      -0.54066223
2
Properties=species:S:1:pos:R:3:forces:R:3 energy=-1.922172924397999 pbc="F F F"
S        0.00000000       0.00000000       0.00000000       0.00000000       0.00000000       0.43491080
S        0.00000000       0.00000000       3.53090909       0.00000000       0.00000000      -0.43491080
2
Properties=species:S:1:pos:R:3:forces:R:3 energy=-1.8992910403636463 pbc="F F F"
S        0.00000000       0.00000000       0.00000000       0.00000000       0.00000000       0.34630263
S        0.00000000       0.00000000       3.58969697       0.00000000       0.00000000      -0.34630263
2
Properties=species:S:1:pos:R:3:forces:R:3 energy=-1.8811411732831114 pbc="F F F"
S        0.00000000       0.00000000       0.00000000       0.00000000       0.00000000       0.27373752
S        0.00000000       0.00000000       3.64848485       0.00000000       0.00000000      -0.27373752
2
Properties=species:S:1:pos:R:3:forces:R:3 energy=-1.8668191700851728 pbc="F F F"
S        0.00000000       0.00000000       0.00000000       0.00000000       0.00000000       0.21582513
S        0.00000000       0.00000000       3.70727273       0.00000000       0.00000000      -0.21582513
2
Properties=species:S:1:pos:R:3:forces:R:3 energy=-1.8555110074251058 pbc="F F F"
S        0.00000000       0.00000000       0.00000000       0.00000000       0.00000000       0.17088386
S        0.00000000       0.00000000       3.76606061       0.00000000       0.00000000      -0.17088386
2
Properties=species:S:1:pos:R:3:forces:R:3 energy=-1.846511407756744 pbc="F F F"
S        0.00000000       0.00000000       0.00000000       0.00000000       0.00000000       0.13695304
S        0.00000000       0.00000000       3.82484848       0.00000000       0.00000000      -0.13695304
2
Properties=species:S:1:pos:R:3:forces:R:3 energy=-1.83923622009153 pbc="F F F"
S        0.00000000       0.00000000       0.00000000       0.00000000       0.00000000       0.11182724
S        0.00000000       0.00000000       3.88363636       0.00000000       0.00000000      -0.11182724
2
Properties=species:S:1:pos:R:3:forces:R:3 energy=-1.8332358847285497 pbc="F F F"
S        0.00000000       0.00000000       0.00000000       0.00000000       0.00000000       0.09320743
S        0.00000000       0.00000000       3.94242424       0.00000000       0.00000000      -0.09320743
2
Properties=species:S:1:pos:R:3:forces:R:3 energy=-1.828193157606612 pbc="F F F"
S        0.00000000       0.00000000       0.00000000       0.00000000       0.00000000       0.07890766
S        0.00000000       0.00000000       4.00121212       0.00000000       0.00000000      -0.07890766
2
Properties=species:S:1:pos:R:3:forces:R:3 energy=-1.8239094650083518 pbc="F F F"
S        0.00000000       0.00000000       0.00000000       0.00000000       0.00000000       0.06711723
S        0.00000000       0.00000000       4.06000000       0.00000000       0.00000000      -0.06711723
2
Properties=species:S:1:pos:R:3:forces:R:3 energy=-1.8202767753355897 pbc="F F F"
S        0.00000000       0.00000000       0.00000000       0.00000000       0.00000000       0.05662069
S        0.00000000       0.00000000       4.11878788       0.00000000       0.00000000      -0.05662069
2
Properties=species:S:1:pos:R:3:forces:R:3 energy=-1.8172376560777759 pbc="F F F"
S        0.00000000       0.00000000       0.00000000       0.00000000       0.00000000       0.04688511
S        0.00000000       0.00000000       4.17757576       0.00000000       0.00000000      -0.04688511
2
Properties=species:S:1:pos:R:3:forces:R:3 energy=-1.8147472096186692 pbc="F F F"
S        0.00000000       0.00000000       0.00000000       0.00000000       0.00000000       0.03801658
S        0.00000000       0.00000000       4.23636364       0.00000000       0.00000000      -0.03801658
2
Properties=species:S:1:pos:R:3:forces:R:3 energy=-1.8127400522631314 pbc="F F F"
S        0.00000000       0.00000000       0.00000000       0.00000000       0.00000000       0.03056991
S        0.00000000       0.00000000       4.29515152       0.00000000       0.00000000      -0.03056991
2
Properties=species:S:1:pos:R:3:forces:R:3 energy=-1.8111108035114178 pbc="F F F"
S        0.00000000       0.00000000       0.00000000       0.00000000       0.00000000       0.02528438
S        0.00000000       0.00000000       4.35393939       0.00000000       0.00000000      -0.02528438
2
Properties=species:S:1:pos:R:3:forces:R:3 energy=-1.8097119181172105 pbc="F F F"
S        0.00000000       0.00000000       0.00000000       0.00000000       0.00000000       0.02280522
S        0.00000000       0.00000000       4.41272727       0.00000000       0.00000000      -0.02280522
2
Properties=species:S:1:pos:R:3:forces:R:3 energy=-1.8083676379102696 pbc="F F F"
S        0.00000000       0.00000000       0.00000000       0.00000000       0.00000000       0.02344797
S        0.00000000       0.00000000       4.47151515       0.00000000       0.00000000      -0.02344797
2
Properties=species:S:1:pos:R:3:forces:R:3 energy=-1.8068972281044295 pbc="F F F"
S        0.00000000       0.00000000       0.00000000       0.00000000       0.00000000       0.02702351
S        0.00000000       0.00000000       4.53030303       0.00000000       0.00000000      -0.02702351
2
Properties=species:S:1:pos:R:3:forces:R:3 energy=-1.8051477111269787 pbc="F F F"
S        0.00000000       0.00000000       0.00000000       0.00000000       0.00000000       0.03276485
S        0.00000000       0.00000000       4.58909091       0.00000000       0.00000000      -0.03276485
2
Properties=species:S:1:pos:R:3:forces:R:3 energy=-1.8030274444165324 pbc="F F F"
S        0.00000000       0.00000000       0.00000000       0.00000000       0.00000000       0.03938817
S        0.00000000       0.00000000       4.64787879       0.00000000       0.00000000      -0.03938817
2
Properties=species:S:1:pos:R:3:forces:R:3 energy=-1.8005302117868993 pbc="F F F"
S        0.00000000       0.00000000       0.00000000       0.00000000       0.00000000       0.04530767
S        0.00000000       0.00000000       4.70666667       0.00000000       0.00000000      -0.04530767
2
Properties=species:S:1:pos:R:3:forces:R:3 energy=-1.7977448464934 pbc="F F F"
S        0.00000000       0.00000000       0.00000000       0.00000000       0.00000000       0.04897106
S        0.00000000       0.00000000       4.76545455       0.00000000       0.00000000      -0.04897106
2
Properties=species:S:1:pos:R:3:forces:R:3 energy=-1.7948385799461946 pbc="F F F"
S        0.00000000       0.00000000       0.00000000       0.00000000       0.00000000       0.04927041
S        0.00000000       0.00000000       4.82424242       0.00000000       0.00000000      -0.04927041
2
Properties=species:S:1:pos:R:3:forces:R:3 energy=-1.7920248947998811 pbc="F F F"
S        0.00000000       0.00000000       0.00000000       0.00000000       0.00000000       0.04588570
S        0.00000000       0.00000000       4.88303030       0.00000000       0.00000000      -0.04588570
2
Properties=species:S:1:pos:R:3:forces:R:3 energy=-1.789504784868058 pbc="F F F"
S        0.00000000       0.00000000       0.00000000       0.00000000       0.00000000       0.03942196
S        0.00000000       0.00000000       4.94181818       0.00000000       0.00000000      -0.03942196
2
Properties=species:S:1:pos:R:3:forces:R:3 energy=-1.7874232762028146 pbc="F F F"
S        0.00000000       0.00000000       0.00000000       0.00000000       0.00000000       0.03125340
S        0.00000000       0.00000000       5.00060606       0.00000000       0.00000000      -0.03125340
2
Properties=species:S:1:pos:R:3:forces:R:3 energy=-1.7858301395062892 pbc="F F F"
S        0.00000000       0.00000000       0.00000000       0.00000000       0.00000000       0.02307014
S        0.00000000       0.00000000       5.05939394       0.00000000       0.00000000      -0.02307014
2
Properties=species:S:1:pos:R:3:forces:R:3 energy=-1.7846822584773492 pbc="F F F"
S        0.00000000       0.00000000       0.00000000       0.00000000       0.00000000       0.01630778
S        0.00000000       0.00000000       5.11818182       0.00000000       0.00000000      -0.01630778
2
Properties=species:S:1:pos:R:3:forces:R:3 energy=-1.783869895057092 pbc="F F F"
S        0.00000000       0.00000000       0.00000000       0.00000000       0.00000000       0.01171655
S        0.00000000       0.00000000       5.17696970       0.00000000       0.00000000      -0.01171655
2
Properties=species:S:1:pos:R:3:forces:R:3 energy=-1.7832612923140916 pbc="F F F"
S        0.00000000       0.00000000       0.00000000       0.00000000       0.00000000       0.00933597
S        0.00000000       0.00000000       5.23575758       0.00000000       0.00000000      -0.00933597
2
Properties=species:S:1:pos:R:3:forces:R:3 energy=-1.782735805915383 pbc="F F F"
S        0.00000000       0.00000000       0.00000000       0.00000000       0.00000000       0.00880542
S        0.00000000       0.00000000       5.29454545       0.00000000       0.00000000      -0.00880542
2
Properties=species:S:1:pos:R:3:forces:R:3 energy=-1.7822006223333766 pbc="F F F"
S        0.00000000       0.00000000       0.00000000       0.00000000       0.00000000       0.00955334
S        0.00000000       0.00000000       5.35333333       0.00000000       0.00000000      -0.00955334
2
Properties=species:S:1:pos:R:3:forces:R:3 energy=-1.7816042255357987 pbc="F F F"
S        0.00000000       0.00000000       0.00000000       0.00000000       0.00000000       0.01073355
S        0.00000000       0.00000000       5.41212121       0.00000000       0.00000000      -0.01073355
2
Properties=species:S:1:pos:R:3:forces:R:3 energy=-1.7809521310280028 pbc="F F F"
S        0.00000000       0.00000000       0.00000000       0.00000000       0.00000000       0.01115862
S        0.00000000       0.00000000       5.47090909       0.00000000       0.00000000      -0.01115862
2
Properties=species:S:1:pos:R:3:forces:R:3 energy=-1.7803536269818496 pbc="F F F"
S        0.00000000       0.00000000       0.00000000       0.00000000       0.00000000       0.00850594
S        0.00000000       0.00000000       5.52969697       0.00000000       0.00000000      -0.00850594
2
Properties=species:S:1:pos:R:3:forces:R:3 energy=-1.7800239205968866 pbc="F F F"
S        0.00000000       0.00000000       0.00000000       0.00000000       0.00000000       0.00233746
S        0.00000000       0.00000000       5.58848485       0.00000000       0.00000000      -0.00233746
2
Properties=species:S:1:pos:R:3:forces:R:3 energy=-1.7800893459634546 pbc="F F F"
S        0.00000000       0.00000000       0.00000000       0.00000000       0.00000000      -0.00445218
S        0.00000000       0.00000000       5.64727273       0.00000000       0.00000000       0.00445218
2
Properties=species:S:1:pos:R:3:forces:R:3 energy=-1.7805330022507866 pbc="F F F"
S        0.00000000       0.00000000       0.00000000       0.00000000       0.00000000      -0.01061030
S        0.00000000       0.00000000       5.70606061       0.00000000       0.00000000       0.01061030
2
Properties=species:S:1:pos:R:3:forces:R:3 energy=-1.781349375481144 pbc="F F F"
S        0.00000000       0.00000000       0.00000000       0.00000000       0.00000000      -0.01710744
S        0.00000000       0.00000000       5.76484848       0.00000000       0.00000000       0.01710744
2
Properties=species:S:1:pos:R:3:forces:R:3 energy=-1.782478883126386 pbc="F F F"
S        0.00000000       0.00000000       0.00000000       0.00000000       0.00000000      -0.02004159
S        0.00000000       0.00000000       5.82363636       0.00000000       0.00000000       0.02004159
2
Properties=species:S:1:pos:R:3:forces:R:3 energy=-1.783497928569216 pbc="F F F"
S        0.00000000       0.00000000       0.00000000       0.00000000       0.00000000      -0.01324586
S        0.00000000       0.00000000       5.88242424       0.00000000       0.00000000       0.01324586
2
Properties=species:S:1:pos:R:3:forces:R:3 energy=-1.783955073081615 pbc="F F F"
S        0.00000000       0.00000000       0.00000000       0.00000000       0.00000000      -0.00250352
S        0.00000000       0.00000000       5.94121212       0.00000000       0.00000000       0.00250352
2
Properties=species:S:1:pos:R:3:forces:R:3 energy=-1.783920464708758 pbc="F F F"
S        0.00000000       0.00000000       0.00000000       0.00000000       0.00000000       0.00211222
S        0.00000000       0.00000000       6.00000000       0.00000000       0.00000000      -0.00211222
