2
Properties=species:S:1:pos:R:3:forces:R:3 energy=43722.68404332607 pbc="F F F"
Sb       0.00000000       0.00000000       0.00000000       0.00000000       0.00000000 -1053562.25000000
Sb       0.00000000       0.00000000       0.10000000       0.00000000       0.00000000 1053562.25000000
2
Properties=species:S:1:pos:R:3:forces:R:3 energy=12821.294394888573 pbc="F F F"
Sb       0.00000000       0.00000000       0.00000000       0.00000000       0.00000000 -228530.23437500
Sb       0.00000000       0.00000000       0.15959596       0.00000000       0.00000000  228530.23437500
2
Properties=species:S:1:pos:R:3:forces:R:3 energy=4946.213340201073 pbc="F F F"
Sb       0.00000000       0.00000000       0.00000000       0.00000000       0.00000000  -71324.66406250
Sb       0.00000000       0.00000000       0.21919192       0.00000000       0.00000000   71324.66406250
2
Properties=species:S:1:pos:R:3:forces:R:3 energy=2251.165732779198 pbc="F F F"
Sb       0.00000000       0.00000000       0.00000000       0.00000000       0.00000000  -27228.78320312
Sb       0.00000000       0.00000000       0.27878788       0.00000000       0.00000000   27228.78320312
2
Properties=species:S:1:pos:R:3:forces:R:3 energy=1162.9494241917837 pbc="F F F"
Sb       0.00000000       0.00000000       0.00000000       0.00000000       0.00000000  -11730.41113281
Sb       0.00000000       0.00000000       0.33838384       0.00000000       0.00000000   11730.41113281
2
Properties=species:S:1:pos:R:3:forces:R:3 energy=676.3940042699087 pbc="F F F"
Sb       0.00000000       0.00000000       0.00000000       0.00000000       0.00000000   -5476.77148438
Sb       0.00000000       0.00000000       0.39797980       0.00000000       0.00000000    5476.77148438
2
Properties=species:S:1:pos:R:3:forces:R:3 energy=442.7480997415643 pbc="F F F"
Sb       0.00000000       0.00000000       0.00000000       0.00000000       0.00000000   -2720.65747070
Sb       0.00000000       0.00000000       0.45757576       0.00000000       0.00000000    2720.65747070
2
Properties=species:S:1:pos:R:3:forces:R:3 energy=323.5242838489382 pbc="F F F"
Sb       0.00000000       0.00000000       0.00000000       0.00000000       0.00000000   -1439.43981934
Sb       0.00000000       0.00000000       0.51717172       0.00000000       0.00000000    1439.43981934
2
Properties=species:S:1:pos:R:3:forces:R:3 energy=258.0641093327408 pbc="F F F"
Sb       0.00000000       0.00000000       0.00000000       0.00000000       0.00000000    -834.72363281
Sb       0.00000000       0.00000000       0.57676768       0.00000000       0.00000000     834.72363281
2
Properties=species:S:1:pos:R:3:forces:R:3 energy=217.16736563435447 pbc="F F F"
Sb       0.00000000       0.00000000       0.00000000       0.00000000       0.00000000    -570.72113037
Sb       0.00000000       0.00000000       0.63636364       0.00000000       0.00000000     570.72113037
2
Properties=species:S:1:pos:R:3:forces:R:3 energy=187.45532962191922 pbc="F F F"
Sb       0.00000000       0.00000000       0.00000000       0.00000000       0.00000000    -444.70684814
Sb       0.00000000       0.00000000       0.69595960       0.00000000       0.00000000     444.70684814
2
Properties=species:S:1:pos:R:3:forces:R:3 energy=162.5486220356454 pbc="F F F"
Sb       0.00000000       0.00000000       0.00000000       0.00000000       0.00000000    -399.43466187
Sb       0.00000000       0.00000000       0.75555556       0.00000000       0.00000000     399.43466187
2
Properties=species:S:1:pos:R:3:forces:R:3 energy=139.41436022311714 pbc="F F F"
Sb       0.00000000       0.00000000       0.00000000       0.00000000       0.00000000    -376.81317139
Sb       0.00000000       0.00000000       0.81515152       0.00000000       0.00000000     376.81317139
2
Properties=species:S:1:pos:R:3:forces:R:3 energy=117.74671992989194 pbc="F F F"
Sb       0.00000000       0.00000000       0.00000000       0.00000000       0.00000000    -351.83105469
Sb       0.00000000       0.00000000       0.87474747       0.00000000       0.00000000     351.83105469
2
Properties=species:S:1:pos:R:3:forces:R:3 energy=96.87205618078801 pbc="F F F"
Sb       0.00000000       0.00000000       0.00000000       0.00000000       0.00000000    -342.09680176
Sb       0.00000000       0.00000000       0.93434343       0.00000000       0.00000000     342.09680176
2
Properties=species:S:1:pos:R:3:forces:R:3 energy=77.7539005142955 pbc="F F F"
Sb       0.00000000       0.00000000       0.00000000       0.00000000       0.00000000    -296.93743896
Sb       0.00000000       0.00000000       0.99393939       0.00000000       0.00000000     296.93743896
2
Properties=species:S:1:pos:R:3:forces:R:3 energy=61.517275888290094 pbc="F F F"
Sb       0.00000000       0.00000000       0.00000000       0.00000000       0.00000000    -247.79893494
Sb       0.00000000       0.00000000       1.05353535       0.00000000       0.00000000     247.79893494
2
Properties=species:S:1:pos:R:3:forces:R:3 energy=48.19579367007129 pbc="F F F"
Sb       0.00000000       0.00000000       0.00000000       0.00000000       0.00000000    -201.28509521
Sb       0.00000000       0.00000000       1.11313131       0.00000000       0.00000000     201.28509521
2
Properties=species:S:1:pos:R:3:forces:R:3 energy=38.10226675984954 pbc="F F F"
Sb       0.00000000       0.00000000       0.00000000       0.00000000       0.00000000    -126.27289581
Sb       0.00000000       0.00000000       1.17272727       0.00000000       0.00000000     126.27289581
2
Properties=species:S:1:pos:R:3:forces:R:3 energy=32.82495591596557 pbc="F F F"
Sb       0.00000000       0.00000000       0.00000000       0.00000000       0.00000000     -65.91729736
Sb       0.00000000       0.00000000       1.23232323       0.00000000       0.00000000      65.91729736
2
Properties=species:S:1:pos:R:3:forces:R:3 energy=28.992227741804808 pbc="F F F"
Sb       0.00000000       0.00000000       0.00000000       0.00000000       0.00000000     -66.80878448
Sb       0.00000000       0.00000000       1.29191919       0.00000000       0.00000000      66.80878448
2
Properties=species:S:1:pos:R:3:forces:R:3 energy=24.737940103802224 pbc="F F F"
Sb       0.00000000       0.00000000       0.00000000       0.00000000       0.00000000     -75.43843079
Sb       0.00000000       0.00000000       1.35151515       0.00000000       0.00000000      75.43843079
2
Properties=species:S:1:pos:R:3:forces:R:3 energy=20.161740707664148 pbc="F F F"
Sb       0.00000000       0.00000000       0.00000000       0.00000000       0.00000000     -76.16708374
Sb       0.00000000       0.00000000       1.41111111       0.00000000       0.00000000      76.16708374
2
Properties=species:S:1:pos:R:3:forces:R:3 energy=15.874801478543317 pbc="F F F"
Sb       0.00000000       0.00000000       0.00000000       0.00000000       0.00000000     -66.57115173
Sb       0.00000000       0.00000000       1.47070707       0.00000000       0.00000000      66.57115173
2
Properties=species:S:1:pos:R:3:forces:R:3 energy=12.269968758341474 pbc="F F F"
Sb       0.00000000       0.00000000       0.00000000       0.00000000       0.00000000     -54.56765747
Sb       0.00000000       0.00000000       1.53030303       0.00000000       0.00000000      54.56765747
2
Properties=species:S:1:pos:R:3:forces:R:3 energy=9.329277496383218 pbc="F F F"
Sb       0.00000000       0.00000000       0.00000000       0.00000000       0.00000000     -44.53577805
Sb       0.00000000       0.00000000       1.58989899       0.00000000       0.00000000      44.53577805
2
Properties=species:S:1:pos:R:3:forces:R:3 energy=6.911069226491784 pbc="F F F"
Sb       0.00000000       0.00000000       0.00000000       0.00000000       0.00000000     -37.03953171
Sb       0.00000000       0.00000000       1.64949495       0.00000000       0.00000000      37.03953171
2
Properties=species:S:1:pos:R:3:forces:R:3 energy=4.86832919603488 pbc="F F F"
Sb       0.00000000       0.00000000       0.00000000       0.00000000       0.00000000     -31.83570290
Sb       0.00000000       0.00000000       1.70909091       0.00000000       0.00000000      31.83570290
2
Properties=species:S:1:pos:R:3:forces:R:3 energy=3.0893463020829017 pbc="F F F"
Sb       0.00000000       0.00000000       0.00000000       0.00000000       0.00000000     -27.99936676
Sb       0.00000000       0.00000000       1.76868687       0.00000000       0.00000000      27.99936676
2
Properties=species:S:1:pos:R:3:forces:R:3 energy=1.523200024843598 pbc="F F F"
Sb       0.00000000       0.00000000       0.00000000       0.00000000       0.00000000     -24.58227730
Sb       0.00000000       0.00000000       1.82828283       0.00000000       0.00000000      24.58227730
2
Properties=species:S:1:pos:R:3:forces:R:3 energy=0.15785003033943357 pbc="F F F"
Sb       0.00000000       0.00000000       0.00000000       0.00000000       0.00000000     -21.25531006
Sb       0.00000000       0.00000000       1.88787879       0.00000000       0.00000000      21.25531006
2
Properties=species:S:1:pos:R:3:forces:R:3 energy=-1.0139775258311494 pbc="F F F"
Sb       0.00000000       0.00000000       0.00000000       0.00000000       0.00000000     -18.11459160
Sb       0.00000000       0.00000000       1.94747475       0.00000000       0.00000000      18.11459160
2
Properties=species:S:1:pos:R:3:forces:R:3 energy=-2.007458789510655 pbc="F F F"
Sb       0.00000000       0.00000000       0.00000000       0.00000000       0.00000000     -15.28110504
Sb       0.00000000       0.00000000       2.00707071       0.00000000       0.00000000      15.28110504
2
Properties=species:S:1:pos:R:3:forces:R:3 energy=-2.841746652413269 pbc="F F F"
Sb       0.00000000       0.00000000       0.00000000       0.00000000       0.00000000     -12.76758766
Sb       0.00000000       0.00000000       2.06666667       0.00000000       0.00000000      12.76758766
2
Properties=species:S:1:pos:R:3:forces:R:3 energy=-3.534790167490851 pbc="F F F"
Sb       0.00000000       0.00000000       0.00000000       0.00000000       0.00000000     -10.53336239
Sb       0.00000000       0.00000000       2.12626263       0.00000000       0.00000000      10.53336239
2
Properties=species:S:1:pos:R:3:forces:R:3 energy=-4.102034465092382 pbc="F F F"
Sb       0.00000000       0.00000000       0.00000000       0.00000000       0.00000000      -8.54102898
Sb       0.00000000       0.00000000       2.18585859       0.00000000       0.00000000       8.54102898
2
Properties=species:S:1:pos:R:3:forces:R:3 energy=-4.55712618285437 pbc="F F F"
Sb       0.00000000       0.00000000       0.00000000       0.00000000       0.00000000      -6.76614857
Sb       0.00000000       0.00000000       2.24545455       0.00000000       0.00000000       6.76614857
2
Properties=species:S:1:pos:R:3:forces:R:3 energy=-4.912455429145017 pbc="F F F"
Sb       0.00000000       0.00000000       0.00000000       0.00000000       0.00000000      -5.19017792
Sb       0.00000000       0.00000000       2.30505051       0.00000000       0.00000000       5.19017792
2
Properties=species:S:1:pos:R:3:forces:R:3 energy=-5.179376075495659 pbc="F F F"
Sb       0.00000000       0.00000000       0.00000000       0.00000000       0.00000000      -3.79659200
Sb       0.00000000       0.00000000       2.36464646       0.00000000       0.00000000       3.79659200
2
Properties=species:S:1:pos:R:3:forces:R:3 energy=-5.368273015982656 pbc="F F F"
Sb       0.00000000       0.00000000       0.00000000       0.00000000       0.00000000      -2.56885028
Sb       0.00000000       0.00000000       2.42424242       0.00000000       0.00000000       2.56885028
2
Properties=species:S:1:pos:R:3:forces:R:3 energy=-5.488498264712546 pbc="F F F"
Sb       0.00000000       0.00000000       0.00000000       0.00000000       0.00000000      -1.48888052
Sb       0.00000000       0.00000000       2.48383838       0.00000000       0.00000000       1.48888052
2
Properties=species:S:1:pos:R:3:forces:R:3 energy=-5.548317085894452 pbc="F F F"
Sb       0.00000000       0.00000000       0.00000000       0.00000000       0.00000000      -0.53901792
Sb       0.00000000       0.00000000       2.54343434       0.00000000       0.00000000       0.53901792
2
Properties=species:S:1:pos:R:3:forces:R:3 energy=-5.555083520599466 pbc="F F F"
Sb       0.00000000       0.00000000       0.00000000       0.00000000       0.00000000       0.29279220
Sb       0.00000000       0.00000000       2.60303030       0.00000000       0.00000000      -0.29279220
2
Properties=species:S:1:pos:R:3:forces:R:3 energy=-5.515701933451555 pbc="F F F"
Sb       0.00000000       0.00000000       0.00000000       0.00000000       0.00000000       1.00935173
Sb       0.00000000       0.00000000       2.66262626       0.00000000       0.00000000      -1.00935173
2
Properties=species:S:1:pos:R:3:forces:R:3 energy=-5.437164465125666 pbc="F F F"
Sb       0.00000000       0.00000000       0.00000000       0.00000000       0.00000000       1.60561574
Sb       0.00000000       0.00000000       2.72222222       0.00000000       0.00000000      -1.60561574
2
Properties=species:S:1:pos:R:3:forces:R:3 energy=-5.326863837523501 pbc="F F F"
Sb       0.00000000       0.00000000       0.00000000       0.00000000       0.00000000       2.07426071
Sb       0.00000000       0.00000000       2.78181818       0.00000000       0.00000000      -2.07426071
2
Properties=species:S:1:pos:R:3:forces:R:3 energy=-5.1925337681356725 pbc="F F F"
Sb       0.00000000       0.00000000       0.00000000       0.00000000       0.00000000       2.41203833
Sb       0.00000000       0.00000000       2.84141414       0.00000000       0.00000000      -2.41203833
2
Properties=species:S:1:pos:R:3:forces:R:3 energy=-5.041883909183502 pbc="F F F"
Sb       0.00000000       0.00000000       0.00000000       0.00000000       0.00000000       2.62351012
Sb       0.00000000       0.00000000       2.90101010       0.00000000       0.00000000      -2.62351012
2
Properties=species:S:1:pos:R:3:forces:R:3 energy=-4.882095200186335 pbc="F F F"
Sb       0.00000000       0.00000000       0.00000000       0.00000000       0.00000000       2.72129655
Sb       0.00000000       0.00000000       2.96060606       0.00000000       0.00000000      -2.72129655
2
Properties=species:S:1:pos:R:3:forces:R:3 energy=-4.7194264549714156 pbc="F F F"
Sb       0.00000000       0.00000000       0.00000000       0.00000000       0.00000000       2.72353673
Sb       0.00000000       0.00000000       3.02020202       0.00000000       0.00000000      -2.72353673
2
Properties=species:S:1:pos:R:3:forces:R:3 energy=-4.558955421434195 pbc="F F F"
Sb       0.00000000       0.00000000       0.00000000       0.00000000       0.00000000       2.65110445
Sb       0.00000000       0.00000000       3.07979798       0.00000000       0.00000000      -2.65110445
2
Properties=species:S:1:pos:R:3:forces:R:3 energy=-4.4044838272677 pbc="F F F"
Sb       0.00000000       0.00000000       0.00000000       0.00000000       0.00000000       2.52593255
Sb       0.00000000       0.00000000       3.13939394       0.00000000       0.00000000      -2.52593255
2
Properties=species:S:1:pos:R:3:forces:R:3 energy=-4.258498472552711 pbc="F F F"
Sb       0.00000000       0.00000000       0.00000000       0.00000000       0.00000000       2.36981702
Sb       0.00000000       0.00000000       3.19898990       0.00000000       0.00000000      -2.36981702
2
Properties=species:S:1:pos:R:3:forces:R:3 energy=-4.122241742427659 pbc="F F F"
Sb       0.00000000       0.00000000       0.00000000       0.00000000       0.00000000       2.20239925
Sb       0.00000000       0.00000000       3.25858586       0.00000000       0.00000000      -2.20239925
2
Properties=species:S:1:pos:R:3:forces:R:3 energy=-3.995912749395781 pbc="F F F"
Sb       0.00000000       0.00000000       0.00000000       0.00000000       0.00000000       2.03864455
Sb       0.00000000       0.00000000       3.31818182       0.00000000       0.00000000      -2.03864455
2
Properties=species:S:1:pos:R:3:forces:R:3 energy=-3.879010267170821 pbc="F F F"
Sb       0.00000000       0.00000000       0.00000000       0.00000000       0.00000000       1.88682985
Sb       0.00000000       0.00000000       3.37777778       0.00000000       0.00000000      -1.88682985
2
Properties=species:S:1:pos:R:3:forces:R:3 energy=-3.7707535762368747 pbc="F F F"
Sb       0.00000000       0.00000000       0.00000000       0.00000000       0.00000000       1.74819493
Sb       0.00000000       0.00000000       3.43737374       0.00000000       0.00000000      -1.74819493
2
Properties=species:S:1:pos:R:3:forces:R:3 energy=-3.6704516079056617 pbc="F F F"
Sb       0.00000000       0.00000000       0.00000000       0.00000000       0.00000000       1.61895347
Sb       0.00000000       0.00000000       3.49696970       0.00000000       0.00000000      -1.61895347
2
Properties=species:S:1:pos:R:3:forces:R:3 energy=-3.5777083461963537 pbc="F F F"
Sb       0.00000000       0.00000000       0.00000000       0.00000000       0.00000000       1.49365354
Sb       0.00000000       0.00000000       3.55656566       0.00000000       0.00000000      -1.49365354
2
Properties=species:S:1:pos:R:3:forces:R:3 energy=-3.4924275909577904 pbc="F F F"
Sb       0.00000000       0.00000000       0.00000000       0.00000000       0.00000000       1.36806560
Sb       0.00000000       0.00000000       3.61616162       0.00000000       0.00000000      -1.36806560
2
Properties=species:S:1:pos:R:3:forces:R:3 energy=-3.4146852225927256 pbc="F F F"
Sb       0.00000000       0.00000000       0.00000000       0.00000000       0.00000000       1.24064422
Sb       0.00000000       0.00000000       3.67575758       0.00000000       0.00000000      -1.24064422
2
Properties=species:S:1:pos:R:3:forces:R:3 energy=-3.34456516402679 pbc="F F F"
Sb       0.00000000       0.00000000       0.00000000       0.00000000       0.00000000       1.11268759
Sb       0.00000000       0.00000000       3.73535354       0.00000000       0.00000000      -1.11268759
2
Properties=species:S:1:pos:R:3:forces:R:3 energy=-3.2820069767114037 pbc="F F F"
Sb       0.00000000       0.00000000       0.00000000       0.00000000       0.00000000       0.98751771
Sb       0.00000000       0.00000000       3.79494949       0.00000000       0.00000000      -0.98751771
2
Properties=species:S:1:pos:R:3:forces:R:3 energy=-3.226724483700717 pbc="F F F"
Sb       0.00000000       0.00000000       0.00000000       0.00000000       0.00000000       0.86919099
Sb       0.00000000       0.00000000       3.85454545       0.00000000       0.00000000      -0.86919099
2
Properties=species:S:1:pos:R:3:forces:R:3 energy=-3.178198660451984 pbc="F F F"
Sb       0.00000000       0.00000000       0.00000000       0.00000000       0.00000000       0.76128644
Sb       0.00000000       0.00000000       3.91414141       0.00000000       0.00000000      -0.76128644
2
Properties=species:S:1:pos:R:3:forces:R:3 energy=-3.1357317058299286 pbc="F F F"
Sb       0.00000000       0.00000000       0.00000000       0.00000000       0.00000000       0.66606295
Sb       0.00000000       0.00000000       3.97373737       0.00000000       0.00000000      -0.66606295
2
Properties=species:S:1:pos:R:3:forces:R:3 energy=-3.0985434787582875 pbc="F F F"
Sb       0.00000000       0.00000000       0.00000000       0.00000000       0.00000000       0.58416009
Sb       0.00000000       0.00000000       4.03333333       0.00000000       0.00000000      -0.58416009
2
Properties=species:S:1:pos:R:3:forces:R:3 energy=-3.0658572837268583 pbc="F F F"
Sb       0.00000000       0.00000000       0.00000000       0.00000000       0.00000000       0.51468658
Sb       0.00000000       0.00000000       4.09292929       0.00000000       0.00000000      -0.51468658
2
Properties=species:S:1:pos:R:3:forces:R:3 energy=-3.036989267423276 pbc="F F F"
Sb       0.00000000       0.00000000       0.00000000       0.00000000       0.00000000       0.45563218
Sb       0.00000000       0.00000000       4.15252525       0.00000000       0.00000000      -0.45563218
2
Properties=species:S:1:pos:R:3:forces:R:3 energy=-3.0113949420341637 pbc="F F F"
Sb       0.00000000       0.00000000       0.00000000       0.00000000       0.00000000       0.40438235
Sb       0.00000000       0.00000000       4.21212121       0.00000000       0.00000000      -0.40438235
2
Properties=species:S:1:pos:R:3:forces:R:3 energy=-2.9886891775597273 pbc="F F F"
Sb       0.00000000       0.00000000       0.00000000       0.00000000       0.00000000       0.35823005
Sb       0.00000000       0.00000000       4.27171717       0.00000000       0.00000000      -0.35823005
2
Properties=species:S:1:pos:R:3:forces:R:3 energy=-2.968642650877653 pbc="F F F"
Sb       0.00000000       0.00000000       0.00000000       0.00000000       0.00000000       0.31481889
Sb       0.00000000       0.00000000       4.33131313       0.00000000       0.00000000      -0.31481889
2
Properties=species:S:1:pos:R:3:forces:R:3 energy=-2.951145768509926 pbc="F F F"
Sb       0.00000000       0.00000000       0.00000000       0.00000000       0.00000000       0.27242869
Sb       0.00000000       0.00000000       4.39090909       0.00000000       0.00000000      -0.27242869
2
Properties=species:S:1:pos:R:3:forces:R:3 energy=-2.9361691913409285 pbc="F F F"
Sb       0.00000000       0.00000000       0.00000000       0.00000000       0.00000000       0.23016830
Sb       0.00000000       0.00000000       4.45050505       0.00000000       0.00000000      -0.23016830
2
Properties=species:S:1:pos:R:3:forces:R:3 energy=-2.9237101777658543 pbc="F F F"
Sb       0.00000000       0.00000000       0.00000000       0.00000000       0.00000000       0.18800516
Sb       0.00000000       0.00000000       4.51010101       0.00000000       0.00000000      -0.18800516
2
Properties=species:S:1:pos:R:3:forces:R:3 energy=-2.913744229900577 pbc="F F F"
Sb       0.00000000       0.00000000       0.00000000       0.00000000       0.00000000       0.14668070
Sb       0.00000000       0.00000000       4.56969697       0.00000000       0.00000000      -0.14668070
2
Properties=species:S:1:pos:R:3:forces:R:3 energy=-2.9061840539078254 pbc="F F F"
Sb       0.00000000       0.00000000       0.00000000       0.00000000       0.00000000       0.10752065
Sb       0.00000000       0.00000000       4.62929293       0.00000000       0.00000000      -0.10752065
2
Properties=species:S:1:pos:R:3:forces:R:3 energy=-2.9008532167440606 pbc="F F F"
Sb       0.00000000       0.00000000       0.00000000       0.00000000       0.00000000       0.07215147
Sb       0.00000000       0.00000000       4.68888889       0.00000000       0.00000000      -0.07215147
2
Properties=species:S:1:pos:R:3:forces:R:3 energy=-2.89747675596805 pbc="F F F"
Sb       0.00000000       0.00000000       0.00000000       0.00000000       0.00000000       0.04217927
Sb       0.00000000       0.00000000       4.74848485       0.00000000       0.00000000      -0.04217927
2
Properties=species:S:1:pos:R:3:forces:R:3 energy=-2.895692743457913 pbc="F F F"
Sb       0.00000000       0.00000000       0.00000000       0.00000000       0.00000000       0.01889111
Sb       0.00000000       0.00000000       4.80808081       0.00000000       0.00000000      -0.01889111
2
Properties=species:S:1:pos:R:3:forces:R:3 energy=-2.895078309466197 pbc="F F F"
Sb       0.00000000       0.00000000       0.00000000       0.00000000       0.00000000       0.00297277
Sb       0.00000000       0.00000000       4.86767677       0.00000000       0.00000000      -0.00297277
2
Properties=species:S:1:pos:R:3:forces:R:3 energy=-2.895193162346078 pbc="F F F"
Sb       0.00000000       0.00000000       0.00000000       0.00000000       0.00000000      -0.00566921
Sb       0.00000000       0.00000000       4.92727273       0.00000000       0.00000000       0.00566921
2
Properties=species:S:1:pos:R:3:forces:R:3 energy=-2.8956272342533147 pbc="F F F"
Sb       0.00000000       0.00000000       0.00000000       0.00000000       0.00000000      -0.00795205
Sb       0.00000000       0.00000000       4.98686869       0.00000000       0.00000000       0.00795205
2
Properties=species:S:1:pos:R:3:forces:R:3 energy=-2.896045077687118 pbc="F F F"
Sb       0.00000000       0.00000000       0.00000000       0.00000000       0.00000000      -0.00540680
Sb       0.00000000       0.00000000       5.04646465       0.00000000       0.00000000       0.00540680
2
Properties=species:S:1:pos:R:3:forces:R:3 energy=-2.8962091402279686 pbc="F F F"
Sb       0.00000000       0.00000000       0.00000000       0.00000000       0.00000000       0.00029943
Sb       0.00000000       0.00000000       5.10606061       0.00000000       0.00000000      -0.00029943
2
Properties=species:S:1:pos:R:3:forces:R:3 energy=-2.8959712796712576 pbc="F F F"
Sb       0.00000000       0.00000000       0.00000000       0.00000000       0.00000000       0.00794847
Sb       0.00000000       0.00000000       5.16565657       0.00000000       0.00000000      -0.00794847
2
Properties=species:S:1:pos:R:3:forces:R:3 energy=-2.895233423377824 pbc="F F F"
Sb       0.00000000       0.00000000       0.00000000       0.00000000       0.00000000       0.01703568
Sb       0.00000000       0.00000000       5.22525253       0.00000000       0.00000000      -0.01703568
2
Properties=species:S:1:pos:R:3:forces:R:3 energy=-2.8939165770264923 pbc="F F F"
Sb       0.00000000       0.00000000       0.00000000       0.00000000       0.00000000       0.02731504
Sb       0.00000000       0.00000000       5.28484848       0.00000000       0.00000000      -0.02731504
2
Properties=species:S:1:pos:R:3:forces:R:3 energy=-2.891977588358431 pbc="F F F"
Sb       0.00000000       0.00000000       0.00000000       0.00000000       0.00000000       0.03749975
Sb       0.00000000       0.00000000       5.34444444       0.00000000       0.00000000      -0.03749975
2
Properties=species:S:1:pos:R:3:forces:R:3 energy=-2.8895283818092814 pbc="F F F"
Sb       0.00000000       0.00000000       0.00000000       0.00000000       0.00000000       0.04348363
Sb       0.00000000       0.00000000       5.40404040       0.00000000       0.00000000      -0.04348363
2
Properties=species:S:1:pos:R:3:forces:R:3 energy=-2.8869718998648426 pbc="F F F"
Sb       0.00000000       0.00000000       0.00000000       0.00000000       0.00000000       0.04101218
Sb       0.00000000       0.00000000       5.46363636       0.00000000       0.00000000      -0.04101218
2
Properties=species:S:1:pos:R:3:forces:R:3 energy=-2.8846807686694196 pbc="F F F"
Sb       0.00000000       0.00000000       0.00000000       0.00000000       0.00000000       0.03653183
Sb       0.00000000       0.00000000       5.52323232       0.00000000       0.00000000      -0.03653183
2
Properties=species:S:1:pos:R:3:forces:R:3 energy=-2.8825231341571467 pbc="F F F"
Sb       0.00000000       0.00000000       0.00000000       0.00000000       0.00000000       0.03629042
Sb       0.00000000       0.00000000       5.58282828       0.00000000       0.00000000      -0.03629042
2
Properties=species:S:1:pos:R:3:forces:R:3 energy=-2.880374303571003 pbc="F F F"
Sb       0.00000000       0.00000000       0.00000000       0.00000000       0.00000000       0.03529702
Sb       0.00000000       0.00000000       5.64242424       0.00000000       0.00000000      -0.03529702
2
Properties=species:S:1:pos:R:3:forces:R:3 energy=-2.87836407660423 pbc="F F F"
Sb       0.00000000       0.00000000       0.00000000       0.00000000       0.00000000       0.03225749
Sb       0.00000000       0.00000000       5.70202020       0.00000000       0.00000000      -0.03225749
2
Properties=species:S:1:pos:R:3:forces:R:3 energy=-2.8763994512038575 pbc="F F F"
Sb       0.00000000       0.00000000       0.00000000       0.00000000       0.00000000       0.03555694
Sb       0.00000000       0.00000000       5.76161616       0.00000000       0.00000000      -0.03555694
2
Properties=species:S:1:pos:R:3:forces:R:3 energy=-2.8740005931721933 pbc="F F F"
Sb       0.00000000       0.00000000       0.00000000       0.00000000       0.00000000       0.04400128
Sb       0.00000000       0.00000000       5.82121212       0.00000000       0.00000000      -0.04400128
2
Properties=species:S:1:pos:R:3:forces:R:3 energy=-2.871498008712401 pbc="F F F"
Sb       0.00000000       0.00000000       0.00000000       0.00000000       0.00000000       0.03675077
Sb       0.00000000       0.00000000       5.88080808       0.00000000       0.00000000      -0.03675077
2
Properties=species:S:1:pos:R:3:forces:R:3 energy=-2.8698577669789525 pbc="F F F"
Sb       0.00000000       0.00000000       0.00000000       0.00000000       0.00000000       0.01779803
Sb       0.00000000       0.00000000       5.94040404       0.00000000       0.00000000      -0.01779803
2
Properties=species:S:1:pos:R:3:forces:R:3 energy=-2.8691656870207667 pbc="F F F"
Sb       0.00000000       0.00000000       0.00000000       0.00000000       0.00000000       0.00839876
Sb       0.00000000       0.00000000       6.00000000       0.00000000       0.00000000      -0.00839876
