2
Properties=species:S:1:pos:R:3:forces:R:3 energy=9041.025840201073 pbc="F F F"
Sb       0.00000000       0.00000000       0.00000000       0.00000000       0.00000000 -148824.87500000
Sb       0.00000000       0.00000000       0.18000000       0.00000000       0.00000000  148824.87500000
2
Properties=species:S:1:pos:R:3:forces:R:3 energy=3759.815146841698 pbc="F F F"
Sb       0.00000000       0.00000000       0.00000000       0.00000000       0.00000000  -51081.07031250
Sb       0.00000000       0.00000000       0.23878788       0.00000000       0.00000000   51081.07031250
2
Properties=species:S:1:pos:R:3:forces:R:3 energy=1804.530478872948 pbc="F F F"
Sb       0.00000000       0.00000000       0.00000000       0.00000000       0.00000000  -20661.10156250
Sb       0.00000000       0.00000000       0.29757576       0.00000000       0.00000000   20661.10156250
2
Properties=species:S:1:pos:R:3:forces:R:3 energy=975.2845682347524 pbc="F F F"
Sb       0.00000000       0.00000000       0.00000000       0.00000000       0.00000000   -9254.29199219
Sb       0.00000000       0.00000000       0.35636364       0.00000000       0.00000000    9254.29199219
2
Properties=species:S:1:pos:R:3:forces:R:3 energy=591.5011820042837 pbc="F F F"
Sb       0.00000000       0.00000000       0.00000000       0.00000000       0.00000000   -4450.29003906
Sb       0.00000000       0.00000000       0.41515152       0.00000000       0.00000000    4450.29003906
2
Properties=species:S:1:pos:R:3:forces:R:3 energy=402.0568766033687 pbc="F F F"
Sb       0.00000000       0.00000000       0.00000000       0.00000000       0.00000000   -2268.37451172
Sb       0.00000000       0.00000000       0.47393939       0.00000000       0.00000000    2268.37451172
2
Properties=species:S:1:pos:R:3:forces:R:3 energy=302.7739786858282 pbc="F F F"
Sb       0.00000000       0.00000000       0.00000000       0.00000000       0.00000000   -1234.97399902
Sb       0.00000000       0.00000000       0.53272727       0.00000000       0.00000000    1234.97399902
2
Properties=species:S:1:pos:R:3:forces:R:3 energy=246.41384079706023 pbc="F F F"
Sb       0.00000000       0.00000000       0.00000000       0.00000000       0.00000000    -748.59594727
Sb       0.00000000       0.00000000       0.59151515       0.00000000       0.00000000     748.59594727
2
Properties=species:S:1:pos:R:3:forces:R:3 energy=209.49576531156453 pbc="F F F"
Sb       0.00000000       0.00000000       0.00000000       0.00000000       0.00000000    -531.06707764
Sb       0.00000000       0.00000000       0.65030303       0.00000000       0.00000000     531.06707764
2
Properties=species:S:1:pos:R:3:forces:R:3 energy=181.716697451449 pbc="F F F"
Sb       0.00000000       0.00000000       0.00000000       0.00000000       0.00000000    -429.97506714
Sb       0.00000000       0.00000000       0.70909091       0.00000000       0.00000000     429.97506714
2
Properties=species:S:1:pos:R:3:forces:R:3 energy=157.6570357826196 pbc="F F F"
Sb       0.00000000       0.00000000       0.00000000       0.00000000       0.00000000    -394.53762817
Sb       0.00000000       0.00000000       0.76787879       0.00000000       0.00000000     394.53762817
2
Properties=species:S:1:pos:R:3:forces:R:3 energy=135.10414910483297 pbc="F F F"
Sb       0.00000000       0.00000000       0.00000000       0.00000000       0.00000000    -371.78366089
Sb       0.00000000       0.00000000       0.82666667       0.00000000       0.00000000     371.78366089
2
Properties=species:S:1:pos:R:3:forces:R:3 energy=113.98678654057562 pbc="F F F"
Sb       0.00000000       0.00000000       0.00000000       0.00000000       0.00000000    -350.92474365
Sb       0.00000000       0.00000000       0.88545455       0.00000000       0.00000000     350.92474365
2
Properties=species:S:1:pos:R:3:forces:R:3 energy=93.51652650333772 pbc="F F F"
Sb       0.00000000       0.00000000       0.00000000       0.00000000       0.00000000    -335.75527954
Sb       0.00000000       0.00000000       0.94424242       0.00000000       0.00000000     335.75527954
2
Properties=species:S:1:pos:R:3:forces:R:3 energy=75.08954060729296 pbc="F F F"
Sb       0.00000000       0.00000000       0.00000000       0.00000000       0.00000000    -289.25555420
Sb       0.00000000       0.00000000       1.00303030       0.00000000       0.00000000     289.25555420
2
Properties=species:S:1:pos:R:3:forces:R:3 energy=59.49446035500679 pbc="F F F"
Sb       0.00000000       0.00000000       0.00000000       0.00000000       0.00000000    -240.63388062
Sb       0.00000000       0.00000000       1.06181818       0.00000000       0.00000000     240.63388062
2
Properties=species:S:1:pos:R:3:forces:R:3 energy=46.71250224683534 pbc="F F F"
Sb       0.00000000       0.00000000       0.00000000       0.00000000       0.00000000    -195.50083923
Sb       0.00000000       0.00000000       1.12060606       0.00000000       0.00000000     195.50083923
2
Properties=species:S:1:pos:R:3:forces:R:3 energy=37.29701873377034 pbc="F F F"
Sb       0.00000000       0.00000000       0.00000000       0.00000000       0.00000000    -115.37992859
Sb       0.00000000       0.00000000       1.17939394       0.00000000       0.00000000     115.37992859
2
Properties=species:S:1:pos:R:3:forces:R:3 energy=32.44310880680648 pbc="F F F"
Sb       0.00000000       0.00000000       0.00000000       0.00000000       0.00000000     -64.53237152
Sb       0.00000000       0.00000000       1.23818182       0.00000000       0.00000000      64.53237152
2
Properties=species:S:1:pos:R:3:forces:R:3 energy=28.652834423857435 pbc="F F F"
Sb       0.00000000       0.00000000       0.00000000       0.00000000       0.00000000     -67.59601593
Sb       0.00000000       0.00000000       1.29696970       0.00000000       0.00000000      67.59601593
2
Properties=species:S:1:pos:R:3:forces:R:3 energy=24.417008032278773 pbc="F F F"
Sb       0.00000000       0.00000000       0.00000000       0.00000000       0.00000000     -75.85537720
Sb       0.00000000       0.00000000       1.35575758       0.00000000       0.00000000      75.85537720
2
Properties=species:S:1:pos:R:3:forces:R:3 energy=19.90071845669734 pbc="F F F"
Sb       0.00000000       0.00000000       0.00000000       0.00000000       0.00000000     -75.84027100
Sb       0.00000000       0.00000000       1.41454545       0.00000000       0.00000000      75.84027100
2
Properties=species:S:1:pos:R:3:forces:R:3 energy=15.700681833313423 pbc="F F F"
Sb       0.00000000       0.00000000       0.00000000       0.00000000       0.00000000     -66.03607178
Sb       0.00000000       0.00000000       1.47333333       0.00000000       0.00000000      66.03607178
2
Properties=species:S:1:pos:R:3:forces:R:3 energy=12.171055819018221 pbc="F F F"
Sb       0.00000000       0.00000000       0.00000000       0.00000000       0.00000000     -54.22531891
Sb       0.00000000       0.00000000       1.53212121       0.00000000       0.00000000      54.22531891
2
Properties=species:S:1:pos:R:3:forces:R:3 energy=9.284360560817197 pbc="F F F"
Sb       0.00000000       0.00000000       0.00000000       0.00000000       0.00000000     -44.38748550
Sb       0.00000000       0.00000000       1.59090909       0.00000000       0.00000000      44.38748550
2
Properties=species:S:1:pos:R:3:forces:R:3 energy=6.903594371549302 pbc="F F F"
Sb       0.00000000       0.00000000       0.00000000       0.00000000       0.00000000     -37.01832962
Sb       0.00000000       0.00000000       1.64969697       0.00000000       0.00000000      37.01832962
2
Properties=species:S:1:pos:R:3:forces:R:3 energy=4.887629027957688 pbc="F F F"
Sb       0.00000000       0.00000000       0.00000000       0.00000000       0.00000000     -31.87978745
Sb       0.00000000       0.00000000       1.70848485       0.00000000       0.00000000      31.87978745
2
Properties=species:S:1:pos:R:3:forces:R:3 energy=3.1290077619025953 pbc="F F F"
Sb       0.00000000       0.00000000       0.00000000       0.00000000       0.00000000     -28.08286667
Sb       0.00000000       0.00000000       1.76727273       0.00000000       0.00000000      28.08286667
2
Properties=species:S:1:pos:R:3:forces:R:3 energy=1.5779606426475823 pbc="F F F"
Sb       0.00000000       0.00000000       0.00000000       0.00000000       0.00000000     -24.70791054
Sb       0.00000000       0.00000000       1.82606061       0.00000000       0.00000000      24.70791054
2
Properties=species:S:1:pos:R:3:forces:R:3 energy=0.22250833335749917 pbc="F F F"
Sb       0.00000000       0.00000000       0.00000000       0.00000000       0.00000000     -21.42137337
Sb       0.00000000       0.00000000       1.88484848       0.00000000       0.00000000      21.42137337
2
Properties=species:S:1:pos:R:3:forces:R:3 energy=-0.9440734492087391 pbc="F F F"
Sb       0.00000000       0.00000000       0.00000000       0.00000000       0.00000000     -18.30834389
Sb       0.00000000       0.00000000       1.94363636       0.00000000       0.00000000      18.30834389
2
Properties=species:S:1:pos:R:3:forces:R:3 energy=-1.9359686097882145 pbc="F F F"
Sb       0.00000000       0.00000000       0.00000000       0.00000000       0.00000000     -15.49013710
Sb       0.00000000       0.00000000       2.00242424       0.00000000       0.00000000      15.49013710
2
Properties=species:S:1:pos:R:3:forces:R:3 energy=-2.7715156149001903 pbc="F F F"
Sb       0.00000000       0.00000000       0.00000000       0.00000000       0.00000000     -12.98532677
Sb       0.00000000       0.00000000       2.06121212       0.00000000       0.00000000      12.98532677
2
Properties=species:S:1:pos:R:3:forces:R:3 energy=-3.4681230922697908 pbc="F F F"
Sb       0.00000000       0.00000000       0.00000000       0.00000000       0.00000000     -10.75626278
Sb       0.00000000       0.00000000       2.12000000       0.00000000       0.00000000      10.75626278
2
Properties=species:S:1:pos:R:3:forces:R:3 energy=-4.040853736173829 pbc="F F F"
Sb       0.00000000       0.00000000       0.00000000       0.00000000       0.00000000      -8.76563072
Sb       0.00000000       0.00000000       2.17878788       0.00000000       0.00000000       8.76563072
2
Properties=species:S:1:pos:R:3:forces:R:3 energy=-4.502942040888922 pbc="F F F"
Sb       0.00000000       0.00000000       0.00000000       0.00000000       0.00000000      -6.98901081
Sb       0.00000000       0.00000000       2.23757576       0.00000000       0.00000000       6.98901081
2
Properties=species:S:1:pos:R:3:forces:R:3 energy=-4.866424590715617 pbc="F F F"
Sb       0.00000000       0.00000000       0.00000000       0.00000000       0.00000000      -5.40815926
Sb       0.00000000       0.00000000       2.29636364       0.00000000       0.00000000       5.40815926
2
Properties=species:S:1:pos:R:3:forces:R:3 energy=-5.142331993270213 pbc="F F F"
Sb       0.00000000       0.00000000       0.00000000       0.00000000       0.00000000      -4.00707579
Sb       0.00000000       0.00000000       2.35515152       0.00000000       0.00000000       4.00707579
2
Properties=species:S:1:pos:R:3:forces:R:3 energy=-5.340775971958217 pbc="F F F"
Sb       0.00000000       0.00000000       0.00000000       0.00000000       0.00000000      -2.77001047
Sb       0.00000000       0.00000000       2.41393939       0.00000000       0.00000000       2.77001047
2
Properties=species:S:1:pos:R:3:forces:R:3 energy=-5.4708983190558405 pbc="F F F"
Sb       0.00000000       0.00000000       0.00000000       0.00000000       0.00000000      -1.67987025
Sb       0.00000000       0.00000000       2.47272727       0.00000000       0.00000000       1.67987025
2
Properties=species:S:1:pos:R:3:forces:R:3 energy=-5.540821285638615 pbc="F F F"
Sb       0.00000000       0.00000000       0.00000000       0.00000000       0.00000000      -0.71928775
Sb       0.00000000       0.00000000       2.53151515       0.00000000       0.00000000       0.71928775
2
Properties=species:S:1:pos:R:3:forces:R:3 energy=-5.557747329246474 pbc="F F F"
Sb       0.00000000       0.00000000       0.00000000       0.00000000       0.00000000       0.12477879
Sb       0.00000000       0.00000000       2.59030303       0.00000000       0.00000000      -0.12477879
2
Properties=species:S:1:pos:R:3:forces:R:3 energy=-5.528339096078045 pbc="F F F"
Sb       0.00000000       0.00000000       0.00000000       0.00000000       0.00000000       0.85690391
Sb       0.00000000       0.00000000       2.64909091       0.00000000       0.00000000      -0.85690391
2
Properties=species:S:1:pos:R:3:forces:R:3 energy=-5.4592564219941595 pbc="F F F"
Sb       0.00000000       0.00000000       0.00000000       0.00000000       0.00000000       1.47351384
Sb       0.00000000       0.00000000       2.70787879       0.00000000       0.00000000      -1.47351384
2
Properties=species:S:1:pos:R:3:forces:R:3 energy=-5.357494848886313 pbc="F F F"
Sb       0.00000000       0.00000000       0.00000000       0.00000000       0.00000000       1.96751142
Sb       0.00000000       0.00000000       2.76666667       0.00000000       0.00000000      -1.96751142
2
Properties=species:S:1:pos:R:3:forces:R:3 energy=-5.230421450819973 pbc="F F F"
Sb       0.00000000       0.00000000       0.00000000       0.00000000       0.00000000       2.33430982
Sb       0.00000000       0.00000000       2.82545455       0.00000000       0.00000000      -2.33430982
2
Properties=species:S:1:pos:R:3:forces:R:3 energy=-5.0854902192719305 pbc="F F F"
Sb       0.00000000       0.00000000       0.00000000       0.00000000       0.00000000       2.57617831
Sb       0.00000000       0.00000000       2.88424242       0.00000000       0.00000000      -2.57617831
2
Properties=species:S:1:pos:R:3:forces:R:3 energy=-4.92977793418478 pbc="F F F"
Sb       0.00000000       0.00000000       0.00000000       0.00000000       0.00000000       2.70327878
Sb       0.00000000       0.00000000       2.94303030       0.00000000       0.00000000      -2.70327878
2
Properties=species:S:1:pos:R:3:forces:R:3 energy=-4.769583357664939 pbc="F F F"
Sb       0.00000000       0.00000000       0.00000000       0.00000000       0.00000000       2.73181224
Sb       0.00000000       0.00000000       3.00181818       0.00000000       0.00000000      -2.73181224
2
Properties=species:S:1:pos:R:3:forces:R:3 energy=-4.610134668051752 pbc="F F F"
Sb       0.00000000       0.00000000       0.00000000       0.00000000       0.00000000       2.68125439
Sb       0.00000000       0.00000000       3.06060606       0.00000000       0.00000000      -2.68125439
2
Properties=species:S:1:pos:R:3:forces:R:3 energy=-4.4554757759491554 pbc="F F F"
Sb       0.00000000       0.00000000       0.00000000       0.00000000       0.00000000       2.57245350
Sb       0.00000000       0.00000000       3.11939394       0.00000000       0.00000000      -2.57245350
2
Properties=species:S:1:pos:R:3:forces:R:3 energy=-4.308402945905485 pbc="F F F"
Sb       0.00000000       0.00000000       0.00000000       0.00000000       0.00000000       2.42654037
Sb       0.00000000       0.00000000       3.17818182       0.00000000       0.00000000      -2.42654037
2
Properties=species:S:1:pos:R:3:forces:R:3 energy=-4.170509095231395 pbc="F F F"
Sb       0.00000000       0.00000000       0.00000000       0.00000000       0.00000000       2.26335716
Sb       0.00000000       0.00000000       3.23696970       0.00000000       0.00000000      -2.26335716
2
Properties=species:S:1:pos:R:3:forces:R:3 energy=-4.042303688785136 pbc="F F F"
Sb       0.00000000       0.00000000       0.00000000       0.00000000       0.00000000       2.09914637
Sb       0.00000000       0.00000000       3.29575758       0.00000000       0.00000000      -2.09914637
2
Properties=species:S:1:pos:R:3:forces:R:3 energy=-3.9235095126323505 pbc="F F F"
Sb       0.00000000       0.00000000       0.00000000       0.00000000       0.00000000       1.94436812
Sb       0.00000000       0.00000000       3.35454545       0.00000000       0.00000000      -1.94436812
2
Properties=species:S:1:pos:R:3:forces:R:3 energy=-3.8134319329080384 pbc="F F F"
Sb       0.00000000       0.00000000       0.00000000       0.00000000       0.00000000       1.80269980
Sb       0.00000000       0.00000000       3.41333333       0.00000000       0.00000000      -1.80269980
2
Properties=species:S:1:pos:R:3:forces:R:3 energy=-3.7113383751952003 pbc="F F F"
Sb       0.00000000       0.00000000       0.00000000       0.00000000       0.00000000       1.67205095
Sb       0.00000000       0.00000000       3.47212121       0.00000000       0.00000000      -1.67205095
2
Properties=species:S:1:pos:R:3:forces:R:3 energy=-3.6167219559602652 pbc="F F F"
Sb       0.00000000       0.00000000       0.00000000       0.00000000       0.00000000       1.54743910
Sb       0.00000000       0.00000000       3.53090909       0.00000000       0.00000000      -1.54743910
2
Properties=species:S:1:pos:R:3:forces:R:3 energy=-3.5293743495869077 pbc="F F F"
Sb       0.00000000       0.00000000       0.00000000       0.00000000       0.00000000       1.42404103
Sb       0.00000000       0.00000000       3.58969697       0.00000000       0.00000000      -1.42404103
2
Properties=species:S:1:pos:R:3:forces:R:3 energy=-3.4493194740587754 pbc="F F F"
Sb       0.00000000       0.00000000       0.00000000       0.00000000       0.00000000       1.29915953
Sb       0.00000000       0.00000000       3.64848485       0.00000000       0.00000000      -1.29915953
2
Properties=species:S:1:pos:R:3:forces:R:3 energy=-3.3766544665338087 pbc="F F F"
Sb       0.00000000       0.00000000       0.00000000       0.00000000       0.00000000       1.17286873
Sb       0.00000000       0.00000000       3.70727273       0.00000000       0.00000000      -1.17286873
2
Properties=species:S:1:pos:R:3:forces:R:3 energy=-3.311399145833797 pbc="F F F"
Sb       0.00000000       0.00000000       0.00000000       0.00000000       0.00000000       1.04759002
Sb       0.00000000       0.00000000       3.76606061       0.00000000       0.00000000      -1.04759002
2
Properties=species:S:1:pos:R:3:forces:R:3 energy=-3.2533902099522156 pbc="F F F"
Sb       0.00000000       0.00000000       0.00000000       0.00000000       0.00000000       0.92705321
Sb       0.00000000       0.00000000       3.82484848       0.00000000       0.00000000      -0.92705321
2
Properties=species:S:1:pos:R:3:forces:R:3 energy=-3.2022327125458427 pbc="F F F"
Sb       0.00000000       0.00000000       0.00000000       0.00000000       0.00000000       0.81503928
Sb       0.00000000       0.00000000       3.88363636       0.00000000       0.00000000      -0.81503928
2
Properties=species:S:1:pos:R:3:forces:R:3 energy=-3.157336464789775 pbc="F F F"
Sb       0.00000000       0.00000000       0.00000000       0.00000000       0.00000000       0.71443695
Sb       0.00000000       0.00000000       3.94242424       0.00000000       0.00000000      -0.71443695
2
Properties=species:S:1:pos:R:3:forces:R:3 energy=-3.117980301359903 pbc="F F F"
Sb       0.00000000       0.00000000       0.00000000       0.00000000       0.00000000       0.62667364
Sb       0.00000000       0.00000000       4.00121212       0.00000000       0.00000000      -0.62667364
2
Properties=species:S:1:pos:R:3:forces:R:3 energy=-3.0834049511411497 pbc="F F F"
Sb       0.00000000       0.00000000       0.00000000       0.00000000       0.00000000       0.55163693
Sb       0.00000000       0.00000000       4.06000000       0.00000000       0.00000000      -0.55163693
2
Properties=species:S:1:pos:R:3:forces:R:3 energy=-3.0528987530424296 pbc="F F F"
Sb       0.00000000       0.00000000       0.00000000       0.00000000       0.00000000       0.48792964
Sb       0.00000000       0.00000000       4.11878788       0.00000000       0.00000000      -0.48792964
2
Properties=species:S:1:pos:R:3:forces:R:3 energy=-3.0258579655617797 pbc="F F F"
Sb       0.00000000       0.00000000       0.00000000       0.00000000       0.00000000       0.43329790
Sb       0.00000000       0.00000000       4.17757576       0.00000000       0.00000000      -0.43329790
2
Properties=species:S:1:pos:R:3:forces:R:3 energy=-3.001826020320711 pbc="F F F"
Sb       0.00000000       0.00000000       0.00000000       0.00000000       0.00000000       0.38513893
Sb       0.00000000       0.00000000       4.23636364       0.00000000       0.00000000      -0.38513893
2
Properties=species:S:1:pos:R:3:forces:R:3 energy=-2.9804971426924065 pbc="F F F"
Sb       0.00000000       0.00000000       0.00000000       0.00000000       0.00000000       0.34094435
Sb       0.00000000       0.00000000       4.29515152       0.00000000       0.00000000      -0.34094435
2
Properties=species:S:1:pos:R:3:forces:R:3 energy=-2.9617024728389776 pbc="F F F"
Sb       0.00000000       0.00000000       0.00000000       0.00000000       0.00000000       0.29867169
Sb       0.00000000       0.00000000       4.35393939       0.00000000       0.00000000      -0.29867169
2
Properties=species:S:1:pos:R:3:forces:R:3 energy=-2.9453708731976516 pbc="F F F"
Sb       0.00000000       0.00000000       0.00000000       0.00000000       0.00000000       0.25696212
Sb       0.00000000       0.00000000       4.41272727       0.00000000       0.00000000      -0.25696212
2
Properties=species:S:1:pos:R:3:forces:R:3 energy=-2.9314897771486415 pbc="F F F"
Sb       0.00000000       0.00000000       0.00000000       0.00000000       0.00000000       0.21526928
Sb       0.00000000       0.00000000       4.47151515       0.00000000       0.00000000      -0.21526928
2
Properties=species:S:1:pos:R:3:forces:R:3 energy=-2.92005523281923 pbc="F F F"
Sb       0.00000000       0.00000000       0.00000000       0.00000000       0.00000000       0.17384613
Sb       0.00000000       0.00000000       4.53030303       0.00000000       0.00000000      -0.17384613
2
Properties=species:S:1:pos:R:3:forces:R:3 energy=-2.9110265148547203 pbc="F F F"
Sb       0.00000000       0.00000000       0.00000000       0.00000000       0.00000000       0.13362421
Sb       0.00000000       0.00000000       4.58909091       0.00000000       0.00000000      -0.13362421
2
Properties=species:S:1:pos:R:3:forces:R:3 energy=-2.904293655142166 pbc="F F F"
Sb       0.00000000       0.00000000       0.00000000       0.00000000       0.00000000       0.09600577
Sb       0.00000000       0.00000000       4.64787879       0.00000000       0.00000000      -0.09600577
2
Properties=species:S:1:pos:R:3:forces:R:3 energy=-2.899656284577372 pbc="F F F"
Sb       0.00000000       0.00000000       0.00000000       0.00000000       0.00000000       0.06257767
Sb       0.00000000       0.00000000       4.70666667       0.00000000       0.00000000      -0.06257767
2
Properties=species:S:1:pos:R:3:forces:R:3 energy=-2.896824335649343 pbc="F F F"
Sb       0.00000000       0.00000000       0.00000000       0.00000000       0.00000000       0.03482508
Sb       0.00000000       0.00000000       4.76545455       0.00000000       0.00000000      -0.03482508
2
Properties=species:S:1:pos:R:3:forces:R:3 energy=-2.8954289368350117 pbc="F F F"
Sb       0.00000000       0.00000000       0.00000000       0.00000000       0.00000000       0.01383334
Sb       0.00000000       0.00000000       4.82424242       0.00000000       0.00000000      -0.01383334
2
Properties=species:S:1:pos:R:3:forces:R:3 energy=-2.8950555020965796 pbc="F F F"
Sb       0.00000000       0.00000000       0.00000000       0.00000000       0.00000000       0.00007477
Sb       0.00000000       0.00000000       4.88303030       0.00000000       0.00000000      -0.00007477
2
Properties=species:S:1:pos:R:3:forces:R:3 energy=-2.895284168589212 pbc="F F F"
Sb       0.00000000       0.00000000       0.00000000       0.00000000       0.00000000      -0.00676201
Sb       0.00000000       0.00000000       4.94181818       0.00000000       0.00000000       0.00676201
2
Properties=species:S:1:pos:R:3:forces:R:3 energy=-2.8957353789591567 pbc="F F F"
Sb       0.00000000       0.00000000       0.00000000       0.00000000       0.00000000      -0.00773052
Sb       0.00000000       0.00000000       5.00060606       0.00000000       0.00000000       0.00773052
2
Properties=species:S:1:pos:R:3:forces:R:3 energy=-2.8961084924822673 pbc="F F F"
Sb       0.00000000       0.00000000       0.00000000       0.00000000       0.00000000      -0.00438460
Sb       0.00000000       0.00000000       5.05939394       0.00000000       0.00000000       0.00438460
2
Properties=species:S:1:pos:R:3:forces:R:3 energy=-2.896196999503559 pbc="F F F"
Sb       0.00000000       0.00000000       0.00000000       0.00000000       0.00000000       0.00172455
Sb       0.00000000       0.00000000       5.11818182       0.00000000       0.00000000      -0.00172455
2
Properties=species:S:1:pos:R:3:forces:R:3 energy=-2.8958721244082244 pbc="F F F"
Sb       0.00000000       0.00000000       0.00000000       0.00000000       0.00000000       0.00956717
Sb       0.00000000       0.00000000       5.17696970       0.00000000       0.00000000      -0.00956717
2
Properties=species:S:1:pos:R:3:forces:R:3 energy=-2.895045431918582 pbc="F F F"
Sb       0.00000000       0.00000000       0.00000000       0.00000000       0.00000000       0.01877375
Sb       0.00000000       0.00000000       5.23575758       0.00000000       0.00000000      -0.01877375
2
Properties=species:S:1:pos:R:3:forces:R:3 energy=-2.8936432972991786 pbc="F F F"
Sb       0.00000000       0.00000000       0.00000000       0.00000000       0.00000000       0.02904290
Sb       0.00000000       0.00000000       5.29454545       0.00000000       0.00000000      -0.02904290
2
Properties=species:S:1:pos:R:3:forces:R:3 energy=-2.891638695223364 pbc="F F F"
Sb       0.00000000       0.00000000       0.00000000       0.00000000       0.00000000       0.03880219
Sb       0.00000000       0.00000000       5.35333333       0.00000000       0.00000000      -0.03880219
2
Properties=species:S:1:pos:R:3:forces:R:3 energy=-2.8891766554632303 pbc="F F F"
Sb       0.00000000       0.00000000       0.00000000       0.00000000       0.00000000       0.04364799
Sb       0.00000000       0.00000000       5.41212121       0.00000000       0.00000000      -0.04364799
2
Properties=species:S:1:pos:R:3:forces:R:3 energy=-2.886677000706361 pbc="F F F"
Sb       0.00000000       0.00000000       0.00000000       0.00000000       0.00000000       0.04033029
Sb       0.00000000       0.00000000       5.47090909       0.00000000       0.00000000      -0.04033029
2
Properties=species:S:1:pos:R:3:forces:R:3 energy=-2.8844448719678866 pbc="F F F"
Sb       0.00000000       0.00000000       0.00000000       0.00000000       0.00000000       0.03633725
Sb       0.00000000       0.00000000       5.52969697       0.00000000       0.00000000      -0.03633725
2
Properties=species:S:1:pos:R:3:forces:R:3 energy=-2.882317659977193 pbc="F F F"
Sb       0.00000000       0.00000000       0.00000000       0.00000000       0.00000000       0.03632106
Sb       0.00000000       0.00000000       5.58848485       0.00000000       0.00000000      -0.03632106
2
Properties=species:S:1:pos:R:3:forces:R:3 energy=-2.880204327010778 pbc="F F F"
Sb       0.00000000       0.00000000       0.00000000       0.00000000       0.00000000       0.03506668
Sb       0.00000000       0.00000000       5.64727273       0.00000000       0.00000000      -0.03506668
2
Properties=species:S:1:pos:R:3:forces:R:3 energy=-2.8782354046486867 pbc="F F F"
Sb       0.00000000       0.00000000       0.00000000       0.00000000       0.00000000       0.03215208
Sb       0.00000000       0.00000000       5.70606061       0.00000000       0.00000000      -0.03215208
2
Properties=species:S:1:pos:R:3:forces:R:3 energy=-2.876280258716317 pbc="F F F"
Sb       0.00000000       0.00000000       0.00000000       0.00000000       0.00000000       0.03608386
Sb       0.00000000       0.00000000       5.76484848       0.00000000       0.00000000      -0.03608386
2
Properties=species:S:1:pos:R:3:forces:R:3 energy=-2.87389035516606 pbc="F F F"
Sb       0.00000000       0.00000000       0.00000000       0.00000000       0.00000000       0.04416954
Sb       0.00000000       0.00000000       5.82363636       0.00000000       0.00000000      -0.04416954
2
Properties=species:S:1:pos:R:3:forces:R:3 energy=-2.871433422801773 pbc="F F F"
Sb       0.00000000       0.00000000       0.00000000       0.00000000       0.00000000       0.03633539
Sb       0.00000000       0.00000000       5.88242424       0.00000000       0.00000000      -0.03633539
2
Properties=species:S:1:pos:R:3:forces:R:3 energy=-2.869845329230025 pbc="F F F"
Sb       0.00000000       0.00000000       0.00000000       0.00000000       0.00000000       0.01755449
Sb       0.00000000       0.00000000       5.94121212       0.00000000       0.00000000      -0.01755449
2
Properties=species:S:1:pos:R:3:forces:R:3 energy=-2.869165687812722 pbc="F F F"
Sb       0.00000000       0.00000000       0.00000000       0.00000000       0.00000000       0.00839876
Sb       0.00000000       0.00000000       6.00000000       0.00000000       0.00000000      -0.00839876
