2
Properties=species:S:1:pos:R:3:forces:R:3 energy=2530.533433288895 pbc="F F F"
Sc       0.00000000       0.00000000       0.00000000       0.00000000       0.00000000  -37525.17187500
Sc       0.00000000       0.00000000       0.18000000       0.00000000       0.00000000   37525.17187500
2
Properties=species:S:1:pos:R:3:forces:R:3 energy=1152.2757428592076 pbc="F F F"
Sc       0.00000000       0.00000000       0.00000000       0.00000000       0.00000000  -13958.65429688
Sc       0.00000000       0.00000000       0.23878788       0.00000000       0.00000000   13958.65429688
2
Properties=species:S:1:pos:R:3:forces:R:3 energy=600.2427838811684 pbc="F F F"
Sc       0.00000000       0.00000000       0.00000000       0.00000000       0.00000000   -6095.11376953
Sc       0.00000000       0.00000000       0.29757576       0.00000000       0.00000000    6095.11376953
2
Properties=species:S:1:pos:R:3:forces:R:3 energy=346.9972089299965 pbc="F F F"
Sc       0.00000000       0.00000000       0.00000000       0.00000000       0.00000000   -2957.00537109
Sc       0.00000000       0.00000000       0.35636364       0.00000000       0.00000000    2957.00537109
2
Properties=species:S:1:pos:R:3:forces:R:3 energy=219.86128364019555 pbc="F F F"
Sc       0.00000000       0.00000000       0.00000000       0.00000000       0.00000000   -1542.63781738
Sc       0.00000000       0.00000000       0.41515152       0.00000000       0.00000000    1542.63781738
2
Properties=species:S:1:pos:R:3:forces:R:3 energy=151.82226692606622 pbc="F F F"
Sc       0.00000000       0.00000000       0.00000000       0.00000000       0.00000000    -849.97967529
Sc       0.00000000       0.00000000       0.47393939       0.00000000       0.00000000     849.97967529
2
Properties=species:S:1:pos:R:3:forces:R:3 energy=113.50977457446767 pbc="F F F"
Sc       0.00000000       0.00000000       0.00000000       0.00000000       0.00000000    -491.18066406
Sc       0.00000000       0.00000000       0.53272727       0.00000000       0.00000000     491.18066406
2
Properties=species:S:1:pos:R:3:forces:R:3 energy=90.86665479096635 pbc="F F F"
Sc       0.00000000       0.00000000       0.00000000       0.00000000       0.00000000    -298.62664795
Sc       0.00000000       0.00000000       0.59151515       0.00000000       0.00000000     298.62664795
2
Properties=species:S:1:pos:R:3:forces:R:3 energy=76.70294329063212 pbc="F F F"
Sc       0.00000000       0.00000000       0.00000000       0.00000000       0.00000000    -193.82336426
Sc       0.00000000       0.00000000       0.65030303       0.00000000       0.00000000     193.82336426
2
Properties=species:S:1:pos:R:3:forces:R:3 energy=67.1330962660619 pbc="F F F"
Sc       0.00000000       0.00000000       0.00000000       0.00000000       0.00000000    -137.80534363
Sc       0.00000000       0.00000000       0.70909091       0.00000000       0.00000000     137.80534363
2
Properties=species:S:1:pos:R:3:forces:R:3 energy=59.94719092989617 pbc="F F F"
Sc       0.00000000       0.00000000       0.00000000       0.00000000       0.00000000    -110.30050659
Sc       0.00000000       0.00000000       0.76787879       0.00000000       0.00000000     110.30050659
2
Properties=species:S:1:pos:R:3:forces:R:3 energy=53.8265322327825 pbc="F F F"
Sc       0.00000000       0.00000000       0.00000000       0.00000000       0.00000000    -100.18017578
Sc       0.00000000       0.00000000       0.82666667       0.00000000       0.00000000     100.18017578
2
Properties=species:S:1:pos:R:3:forces:R:3 energy=47.960771686153436 pbc="F F F"
Sc       0.00000000       0.00000000       0.00000000       0.00000000       0.00000000    -100.70996094
Sc       0.00000000       0.00000000       0.88545455       0.00000000       0.00000000     100.70996094
2
Properties=species:S:1:pos:R:3:forces:R:3 energy=41.87795115178336 pbc="F F F"
Sc       0.00000000       0.00000000       0.00000000       0.00000000       0.00000000    -106.68539429
Sc       0.00000000       0.00000000       0.94424242       0.00000000       0.00000000     106.68539429
2
Properties=species:S:1:pos:R:3:forces:R:3 energy=35.42737104270414 pbc="F F F"
Sc       0.00000000       0.00000000       0.00000000       0.00000000       0.00000000    -112.16801453
Sc       0.00000000       0.00000000       1.00303030       0.00000000       0.00000000     112.16801453
2
Properties=species:S:1:pos:R:3:forces:R:3 energy=28.770972934753427 pbc="F F F"
Sc       0.00000000       0.00000000       0.00000000       0.00000000       0.00000000    -113.94440460
Sc       0.00000000       0.00000000       1.06181818       0.00000000       0.00000000     113.94440460
2
Properties=species:S:1:pos:R:3:forces:R:3 energy=22.03085197397732 pbc="F F F"
Sc       0.00000000       0.00000000       0.00000000       0.00000000       0.00000000    -115.10576630
Sc       0.00000000       0.00000000       1.12060606       0.00000000       0.00000000     115.10576630
2
Properties=species:S:1:pos:R:3:forces:R:3 energy=15.375858162464974 pbc="F F F"
Sc       0.00000000       0.00000000       0.00000000       0.00000000       0.00000000    -109.27011108
Sc       0.00000000       0.00000000       1.17939394       0.00000000       0.00000000     109.27011108
2
Properties=species:S:1:pos:R:3:forces:R:3 energy=9.443137566002223 pbc="F F F"
Sc       0.00000000       0.00000000       0.00000000       0.00000000       0.00000000     -90.72987366
Sc       0.00000000       0.00000000       1.23818182       0.00000000       0.00000000      90.72987366
2
Properties=species:S:1:pos:R:3:forces:R:3 energy=4.819833675454252 pbc="F F F"
Sc       0.00000000       0.00000000       0.00000000       0.00000000       0.00000000     -66.47773743
Sc       0.00000000       0.00000000       1.29696970       0.00000000       0.00000000      66.47773743
2
Properties=species:S:1:pos:R:3:forces:R:3 energy=1.5825190040686148 pbc="F F F"
Sc       0.00000000       0.00000000       0.00000000       0.00000000       0.00000000     -44.24212646
Sc       0.00000000       0.00000000       1.35575758       0.00000000       0.00000000      44.24212646
2
Properties=species:S:1:pos:R:3:forces:R:3 energy=-0.4770611545966832 pbc="F F F"
Sc       0.00000000       0.00000000       0.00000000       0.00000000       0.00000000     -26.96854973
Sc       0.00000000       0.00000000       1.41454545       0.00000000       0.00000000      26.96854973
2
Properties=species:S:1:pos:R:3:forces:R:3 energy=-1.7424880800820037 pbc="F F F"
Sc       0.00000000       0.00000000       0.00000000       0.00000000       0.00000000     -17.31656265
Sc       0.00000000       0.00000000       1.47333333       0.00000000       0.00000000      17.31656265
2
Properties=species:S:1:pos:R:3:forces:R:3 energy=-2.625111892750779 pbc="F F F"
Sc       0.00000000       0.00000000       0.00000000       0.00000000       0.00000000     -13.35020542
Sc       0.00000000       0.00000000       1.53212121       0.00000000       0.00000000      13.35020542
2
Properties=species:S:1:pos:R:3:forces:R:3 energy=-3.3531552653576546 pbc="F F F"
Sc       0.00000000       0.00000000       0.00000000       0.00000000       0.00000000     -11.53587532
Sc       0.00000000       0.00000000       1.59090909       0.00000000       0.00000000      11.53587532
2
Properties=species:S:1:pos:R:3:forces:R:3 energy=-3.98173324660332 pbc="F F F"
Sc       0.00000000       0.00000000       0.00000000       0.00000000       0.00000000      -9.80374146
Sc       0.00000000       0.00000000       1.64969697       0.00000000       0.00000000       9.80374146
2
Properties=species:S:1:pos:R:3:forces:R:3 energy=-4.5023557707248205 pbc="F F F"
Sc       0.00000000       0.00000000       0.00000000       0.00000000       0.00000000      -7.91050243
Sc       0.00000000       0.00000000       1.70848485       0.00000000       0.00000000       7.91050243
2
Properties=species:S:1:pos:R:3:forces:R:3 energy=-4.9156105815332465 pbc="F F F"
Sc       0.00000000       0.00000000       0.00000000       0.00000000       0.00000000      -6.19991636
Sc       0.00000000       0.00000000       1.76727273       0.00000000       0.00000000       6.19991636
2
Properties=species:S:1:pos:R:3:forces:R:3 energy=-5.237612086679146 pbc="F F F"
Sc       0.00000000       0.00000000       0.00000000       0.00000000       0.00000000      -4.80387068
Sc       0.00000000       0.00000000       1.82606061       0.00000000       0.00000000       4.80387068
2
Properties=species:S:1:pos:R:3:forces:R:3 energy=-5.485466139635282 pbc="F F F"
Sc       0.00000000       0.00000000       0.00000000       0.00000000       0.00000000      -3.66672397
Sc       0.00000000       0.00000000       1.88484848       0.00000000       0.00000000       3.66672397
2
Properties=species:S:1:pos:R:3:forces:R:3 energy=-5.673103761389944 pbc="F F F"
Sc       0.00000000       0.00000000       0.00000000       0.00000000       0.00000000      -2.75374722
Sc       0.00000000       0.00000000       1.94363636       0.00000000       0.00000000       2.75374722
2
Properties=species:S:1:pos:R:3:forces:R:3 energy=-5.8134975682573 pbc="F F F"
Sc       0.00000000       0.00000000       0.00000000       0.00000000       0.00000000      -2.05702567
Sc       0.00000000       0.00000000       2.00242424       0.00000000       0.00000000       2.05702567
2
Properties=species:S:1:pos:R:3:forces:R:3 energy=-5.918656643878076 pbc="F F F"
Sc       0.00000000       0.00000000       0.00000000       0.00000000       0.00000000      -1.54855216
Sc       0.00000000       0.00000000       2.06121212       0.00000000       0.00000000       1.54855216
2
Properties=species:S:1:pos:R:3:forces:R:3 energy=-5.998444684819739 pbc="F F F"
Sc       0.00000000       0.00000000       0.00000000       0.00000000       0.00000000      -1.18705761
Sc       0.00000000       0.00000000       2.12000000       0.00000000       0.00000000       1.18705761
2
Properties=species:S:1:pos:R:3:forces:R:3 energy=-6.060395931929969 pbc="F F F"
Sc       0.00000000       0.00000000       0.00000000       0.00000000       0.00000000      -0.93660682
Sc       0.00000000       0.00000000       2.17878788       0.00000000       0.00000000       0.93660682
2
Properties=species:S:1:pos:R:3:forces:R:3 energy=-6.110204615841222 pbc="F F F"
Sc       0.00000000       0.00000000       0.00000000       0.00000000       0.00000000      -0.76991338
Sc       0.00000000       0.00000000       2.23757576       0.00000000       0.00000000       0.76991338
2
Properties=species:S:1:pos:R:3:forces:R:3 energy=-6.152109607670274 pbc="F F F"
Sc       0.00000000       0.00000000       0.00000000       0.00000000       0.00000000      -0.66397250
Sc       0.00000000       0.00000000       2.29636364       0.00000000       0.00000000       0.66397250
2
Properties=species:S:1:pos:R:3:forces:R:3 energy=-6.189023850804515 pbc="F F F"
Sc       0.00000000       0.00000000       0.00000000       0.00000000       0.00000000      -0.59628826
Sc       0.00000000       0.00000000       2.35515152       0.00000000       0.00000000       0.59628826
2
Properties=species:S:1:pos:R:3:forces:R:3 energy=-6.222484890054877 pbc="F F F"
Sc       0.00000000       0.00000000       0.00000000       0.00000000       0.00000000      -0.54204959
Sc       0.00000000       0.00000000       2.41393939       0.00000000       0.00000000       0.54204959
2
Properties=species:S:1:pos:R:3:forces:R:3 energy=-6.252474744099762 pbc="F F F"
Sc       0.00000000       0.00000000       0.00000000       0.00000000       0.00000000      -0.47351903
Sc       0.00000000       0.00000000       2.47272727       0.00000000       0.00000000       0.47351903
2
Properties=species:S:1:pos:R:3:forces:R:3 energy=-6.27738248045613 pbc="F F F"
Sc       0.00000000       0.00000000       0.00000000       0.00000000       0.00000000      -0.36583376
Sc       0.00000000       0.00000000       2.53151515       0.00000000       0.00000000       0.36583376
2
Properties=species:S:1:pos:R:3:forces:R:3 energy=-6.294478731168958 pbc="F F F"
Sc       0.00000000       0.00000000       0.00000000       0.00000000       0.00000000      -0.20735992
Sc       0.00000000       0.00000000       2.59030303       0.00000000       0.00000000       0.20735992
2
Properties=species:S:1:pos:R:3:forces:R:3 energy=-6.300901269908636 pbc="F F F"
Sc       0.00000000       0.00000000       0.00000000       0.00000000       0.00000000      -0.00539107
Sc       0.00000000       0.00000000       2.64909091       0.00000000       0.00000000       0.00539107
2
Properties=species:S:1:pos:R:3:forces:R:3 energy=-6.294680519365036 pbc="F F F"
Sc       0.00000000       0.00000000       0.00000000       0.00000000       0.00000000       0.21855307
Sc       0.00000000       0.00000000       2.70787879       0.00000000       0.00000000      -0.21855307
2
Properties=species:S:1:pos:R:3:forces:R:3 energy=-6.2752623986176825 pbc="F F F"
Sc       0.00000000       0.00000000       0.00000000       0.00000000       0.00000000       0.43974686
Sc       0.00000000       0.00000000       2.76666667       0.00000000       0.00000000      -0.43974686
2
Properties=species:S:1:pos:R:3:forces:R:3 energy=-6.243411406130357 pbc="F F F"
Sc       0.00000000       0.00000000       0.00000000       0.00000000       0.00000000       0.63900846
Sc       0.00000000       0.00000000       2.82545455       0.00000000       0.00000000      -0.63900846
2
Properties=species:S:1:pos:R:3:forces:R:3 energy=-6.200791617325836 pbc="F F F"
Sc       0.00000000       0.00000000       0.00000000       0.00000000       0.00000000       0.80470866
Sc       0.00000000       0.00000000       2.88424242       0.00000000       0.00000000      -0.80470866
2
Properties=species:S:1:pos:R:3:forces:R:3 energy=-6.149584184459532 pbc="F F F"
Sc       0.00000000       0.00000000       0.00000000       0.00000000       0.00000000       0.93033564
Sc       0.00000000       0.00000000       2.94303030       0.00000000       0.00000000      -0.93033564
2
Properties=species:S:1:pos:R:3:forces:R:3 energy=-6.092261904258338 pbc="F F F"
Sc       0.00000000       0.00000000       0.00000000       0.00000000       0.00000000       1.01244640
Sc       0.00000000       0.00000000       3.00181818       0.00000000       0.00000000      -1.01244640
2
Properties=species:S:1:pos:R:3:forces:R:3 energy=-6.031382716545163 pbc="F F F"
Sc       0.00000000       0.00000000       0.00000000       0.00000000       0.00000000       1.05218542
Sc       0.00000000       0.00000000       3.06060606       0.00000000       0.00000000      -1.05218542
2
Properties=species:S:1:pos:R:3:forces:R:3 energy=-5.969155481047924 pbc="F F F"
Sc       0.00000000       0.00000000       0.00000000       0.00000000       0.00000000       1.06169832
Sc       0.00000000       0.00000000       3.11939394       0.00000000       0.00000000      -1.06169832
2
Properties=species:S:1:pos:R:3:forces:R:3 energy=-5.906579840034202 pbc="F F F"
Sc       0.00000000       0.00000000       0.00000000       0.00000000       0.00000000       1.06995022
Sc       0.00000000       0.00000000       3.17818182       0.00000000       0.00000000      -1.06995022
2
Properties=species:S:1:pos:R:3:forces:R:3 energy=-5.842766650063683 pbc="F F F"
Sc       0.00000000       0.00000000       0.00000000       0.00000000       0.00000000       1.10680413
Sc       0.00000000       0.00000000       3.23696970       0.00000000       0.00000000      -1.10680413
2
Properties=species:S:1:pos:R:3:forces:R:3 energy=-5.775989041313071 pbc="F F F"
Sc       0.00000000       0.00000000       0.00000000       0.00000000       0.00000000       1.16574609
Sc       0.00000000       0.00000000       3.29575758       0.00000000       0.00000000      -1.16574609
2
Properties=species:S:1:pos:R:3:forces:R:3 energy=-5.70601748129365 pbc="F F F"
Sc       0.00000000       0.00000000       0.00000000       0.00000000       0.00000000       1.20949948
Sc       0.00000000       0.00000000       3.35454545       0.00000000       0.00000000      -1.20949948
2
Properties=species:S:1:pos:R:3:forces:R:3 energy=-5.634492465173891 pbc="F F F"
Sc       0.00000000       0.00000000       0.00000000       0.00000000       0.00000000       1.21808970
Sc       0.00000000       0.00000000       3.41333333       0.00000000       0.00000000      -1.21808970
2
Properties=species:S:1:pos:R:3:forces:R:3 energy=-5.563317253329086 pbc="F F F"
Sc       0.00000000       0.00000000       0.00000000       0.00000000       0.00000000       1.20047426
Sc       0.00000000       0.00000000       3.47212121       0.00000000       0.00000000      -1.20047426
2
Properties=species:S:1:pos:R:3:forces:R:3 energy=-5.493512153341547 pbc="F F F"
Sc       0.00000000       0.00000000       0.00000000       0.00000000       0.00000000       1.17413068
Sc       0.00000000       0.00000000       3.53090909       0.00000000       0.00000000      -1.17413068
2
Properties=species:S:1:pos:R:3:forces:R:3 energy=-5.425204040896302 pbc="F F F"
Sc       0.00000000       0.00000000       0.00000000       0.00000000       0.00000000       1.15071392
Sc       0.00000000       0.00000000       3.58969697       0.00000000       0.00000000      -1.15071392
2
Properties=species:S:1:pos:R:3:forces:R:3 energy=-5.358103181869032 pbc="F F F"
Sc       0.00000000       0.00000000       0.00000000       0.00000000       0.00000000       1.13283753
Sc       0.00000000       0.00000000       3.64848485       0.00000000       0.00000000      -1.13283753
2
Properties=species:S:1:pos:R:3:forces:R:3 energy=-5.2919838474090835 pbc="F F F"
Sc       0.00000000       0.00000000       0.00000000       0.00000000       0.00000000       1.11624396
Sc       0.00000000       0.00000000       3.70727273       0.00000000       0.00000000      -1.11624396
2
Properties=species:S:1:pos:R:3:forces:R:3 energy=-5.226966733509858 pbc="F F F"
Sc       0.00000000       0.00000000       0.00000000       0.00000000       0.00000000       1.09424174
Sc       0.00000000       0.00000000       3.76606061       0.00000000       0.00000000      -1.09424174
2
Properties=species:S:1:pos:R:3:forces:R:3 energy=-5.163532701488122 pbc="F F F"
Sc       0.00000000       0.00000000       0.00000000       0.00000000       0.00000000       1.06190062
Sc       0.00000000       0.00000000       3.82484848       0.00000000       0.00000000      -1.06190062
2
Properties=species:S:1:pos:R:3:forces:R:3 energy=-5.102342303536816 pbc="F F F"
Sc       0.00000000       0.00000000       0.00000000       0.00000000       0.00000000       1.01796806
Sc       0.00000000       0.00000000       3.88363636       0.00000000       0.00000000      -1.01796806
2
Properties=species:S:1:pos:R:3:forces:R:3 energy=-5.044035287067828 pbc="F F F"
Sc       0.00000000       0.00000000       0.00000000       0.00000000       0.00000000       0.96432602
Sc       0.00000000       0.00000000       3.94242424       0.00000000       0.00000000      -0.96432602
2
Properties=species:S:1:pos:R:3:forces:R:3 energy=-4.989085211408022 pbc="F F F"
Sc       0.00000000       0.00000000       0.00000000       0.00000000       0.00000000       0.90438479
Sc       0.00000000       0.00000000       4.00121212       0.00000000       0.00000000      -0.90438479
2
Properties=species:S:1:pos:R:3:forces:R:3 energy=-4.93775457909303 pbc="F F F"
Sc       0.00000000       0.00000000       0.00000000       0.00000000       0.00000000       0.84174973
Sc       0.00000000       0.00000000       4.06000000       0.00000000       0.00000000      -0.84174973
2
Properties=species:S:1:pos:R:3:forces:R:3 energy=-4.890107111592284 pbc="F F F"
Sc       0.00000000       0.00000000       0.00000000       0.00000000       0.00000000       0.77954400
Sc       0.00000000       0.00000000       4.11878788       0.00000000       0.00000000      -0.77954400
2
Properties=species:S:1:pos:R:3:forces:R:3 energy=-4.846044026946905 pbc="F F F"
Sc       0.00000000       0.00000000       0.00000000       0.00000000       0.00000000       0.72009325
Sc       0.00000000       0.00000000       4.17757576       0.00000000       0.00000000      -0.72009325
2
Properties=species:S:1:pos:R:3:forces:R:3 energy=-4.80535799839631 pbc="F F F"
Sc       0.00000000       0.00000000       0.00000000       0.00000000       0.00000000       0.66483045
Sc       0.00000000       0.00000000       4.23636364       0.00000000       0.00000000      -0.66483045
2
Properties=species:S:1:pos:R:3:forces:R:3 energy=-4.767781779097067 pbc="F F F"
Sc       0.00000000       0.00000000       0.00000000       0.00000000       0.00000000       0.61432219
Sc       0.00000000       0.00000000       4.29515152       0.00000000       0.00000000      -0.61432219
2
Properties=species:S:1:pos:R:3:forces:R:3 energy=-4.73303785654378 pbc="F F F"
Sc       0.00000000       0.00000000       0.00000000       0.00000000       0.00000000       0.56846517
Sc       0.00000000       0.00000000       4.35393939       0.00000000       0.00000000      -0.56846517
2
Properties=species:S:1:pos:R:3:forces:R:3 energy=-4.700863007346844 pbc="F F F"
Sc       0.00000000       0.00000000       0.00000000       0.00000000       0.00000000       0.52677983
Sc       0.00000000       0.00000000       4.41272727       0.00000000       0.00000000      -0.52677983
2
Properties=species:S:1:pos:R:3:forces:R:3 energy=-4.67102988161744 pbc="F F F"
Sc       0.00000000       0.00000000       0.00000000       0.00000000       0.00000000       0.48873186
Sc       0.00000000       0.00000000       4.47151515       0.00000000       0.00000000      -0.48873186
2
Properties=species:S:1:pos:R:3:forces:R:3 energy=-4.6433357252663345 pbc="F F F"
Sc       0.00000000       0.00000000       0.00000000       0.00000000       0.00000000       0.45395806
Sc       0.00000000       0.00000000       4.53030303       0.00000000       0.00000000      -0.45395806
2
Properties=species:S:1:pos:R:3:forces:R:3 energy=-4.617593225063202 pbc="F F F"
Sc       0.00000000       0.00000000       0.00000000       0.00000000       0.00000000       0.42235884
Sc       0.00000000       0.00000000       4.58909091       0.00000000       0.00000000      -0.42235884
2
Properties=species:S:1:pos:R:3:forces:R:3 energy=-4.593611854966661 pbc="F F F"
Sc       0.00000000       0.00000000       0.00000000       0.00000000       0.00000000       0.39408222
Sc       0.00000000       0.00000000       4.64787879       0.00000000       0.00000000      -0.39408222
2
Properties=species:S:1:pos:R:3:forces:R:3 energy=-4.571188467757829 pbc="F F F"
Sc       0.00000000       0.00000000       0.00000000       0.00000000       0.00000000       0.36937210
Sc       0.00000000       0.00000000       4.70666667       0.00000000       0.00000000      -0.36937210
2
Properties=species:S:1:pos:R:3:forces:R:3 energy=-4.5501090503334956 pbc="F F F"
Sc       0.00000000       0.00000000       0.00000000       0.00000000       0.00000000       0.34840870
Sc       0.00000000       0.00000000       4.76545455       0.00000000       0.00000000      -0.34840870
2
Properties=species:S:1:pos:R:3:forces:R:3 energy=-4.530150567698309 pbc="F F F"
Sc       0.00000000       0.00000000       0.00000000       0.00000000       0.00000000       0.33116281
Sc       0.00000000       0.00000000       4.82424242       0.00000000       0.00000000      -0.33116281
2
Properties=species:S:1:pos:R:3:forces:R:3 energy=-4.511105899545013 pbc="F F F"
Sc       0.00000000       0.00000000       0.00000000       0.00000000       0.00000000       0.31733942
Sc       0.00000000       0.00000000       4.88303030       0.00000000       0.00000000      -0.31733942
2
Properties=species:S:1:pos:R:3:forces:R:3 energy=-4.4927836945346336 pbc="F F F"
Sc       0.00000000       0.00000000       0.00000000       0.00000000       0.00000000       0.30637634
Sc       0.00000000       0.00000000       4.94181818       0.00000000       0.00000000      -0.30637634
2
Properties=species:S:1:pos:R:3:forces:R:3 energy=-4.475041126340569 pbc="F F F"
Sc       0.00000000       0.00000000       0.00000000       0.00000000       0.00000000       0.29752356
Sc       0.00000000       0.00000000       5.00060606       0.00000000       0.00000000      -0.29752356
2
Properties=species:S:1:pos:R:3:forces:R:3 energy=-4.457777637744737 pbc="F F F"
Sc       0.00000000       0.00000000       0.00000000       0.00000000       0.00000000       0.28988457
Sc       0.00000000       0.00000000       5.05939394       0.00000000       0.00000000      -0.28988457
2
Properties=species:S:1:pos:R:3:forces:R:3 energy=-4.440955680718056 pbc="F F F"
Sc       0.00000000       0.00000000       0.00000000       0.00000000       0.00000000       0.28233159
Sc       0.00000000       0.00000000       5.11818182       0.00000000       0.00000000      -0.28233159
2
Properties=species:S:1:pos:R:3:forces:R:3 energy=-4.424612624678106 pbc="F F F"
Sc       0.00000000       0.00000000       0.00000000       0.00000000       0.00000000       0.27324569
Sc       0.00000000       0.00000000       5.17696970       0.00000000       0.00000000      -0.27324569
2
Properties=species:S:1:pos:R:3:forces:R:3 energy=-4.408906507513744 pbc="F F F"
Sc       0.00000000       0.00000000       0.00000000       0.00000000       0.00000000       0.26021230
Sc       0.00000000       0.00000000       5.23575758       0.00000000       0.00000000      -0.26021230
2
Properties=species:S:1:pos:R:3:forces:R:3 energy=-4.394144061271479 pbc="F F F"
Sc       0.00000000       0.00000000       0.00000000       0.00000000       0.00000000       0.24086715
Sc       0.00000000       0.00000000       5.29454545       0.00000000       0.00000000      -0.24086715
2
Properties=species:S:1:pos:R:3:forces:R:3 energy=-4.380682600910311 pbc="F F F"
Sc       0.00000000       0.00000000       0.00000000       0.00000000       0.00000000       0.21693245
Sc       0.00000000       0.00000000       5.35333333       0.00000000       0.00000000      -0.21693245
2
Properties=species:S:1:pos:R:3:forces:R:3 energy=-4.368525587196008 pbc="F F F"
Sc       0.00000000       0.00000000       0.00000000       0.00000000       0.00000000       0.19878757
Sc       0.00000000       0.00000000       5.41212121       0.00000000       0.00000000      -0.19878757
2
Properties=species:S:1:pos:R:3:forces:R:3 energy=-4.357031787712838 pbc="F F F"
Sc       0.00000000       0.00000000       0.00000000       0.00000000       0.00000000       0.19377612
Sc       0.00000000       0.00000000       5.47090909       0.00000000       0.00000000      -0.19377612
2
Properties=species:S:1:pos:R:3:forces:R:3 energy=-4.345784188207399 pbc="F F F"
Sc       0.00000000       0.00000000       0.00000000       0.00000000       0.00000000       0.18667026
Sc       0.00000000       0.00000000       5.52969697       0.00000000       0.00000000      -0.18667026
2
Properties=species:S:1:pos:R:3:forces:R:3 energy=-4.335383055146097 pbc="F F F"
Sc       0.00000000       0.00000000       0.00000000       0.00000000       0.00000000       0.16542898
Sc       0.00000000       0.00000000       5.58848485       0.00000000       0.00000000      -0.16542898
2
Properties=species:S:1:pos:R:3:forces:R:3 energy=-4.326327237728129 pbc="F F F"
Sc       0.00000000       0.00000000       0.00000000       0.00000000       0.00000000       0.14499947
Sc       0.00000000       0.00000000       5.64727273       0.00000000       0.00000000      -0.14499947
2
Properties=species:S:1:pos:R:3:forces:R:3 energy=-4.317894709461313 pbc="F F F"
Sc       0.00000000       0.00000000       0.00000000       0.00000000       0.00000000       0.14597869
Sc       0.00000000       0.00000000       5.70606061       0.00000000       0.00000000      -0.14597869
2
Properties=species:S:1:pos:R:3:forces:R:3 energy=-4.308907042664811 pbc="F F F"
Sc       0.00000000       0.00000000       0.00000000       0.00000000       0.00000000       0.15781260
Sc       0.00000000       0.00000000       5.76484848       0.00000000       0.00000000      -0.15781260
2
Properties=species:S:1:pos:R:3:forces:R:3 energy=-4.299914788011225 pbc="F F F"
Sc       0.00000000       0.00000000       0.00000000       0.00000000       0.00000000       0.14153557
Sc       0.00000000       0.00000000       5.82363636       0.00000000       0.00000000      -0.14153557
2
Properties=species:S:1:pos:R:3:forces:R:3 energy=-4.292949550882551 pbc="F F F"
Sc       0.00000000       0.00000000       0.00000000       0.00000000       0.00000000       0.09310704
Sc       0.00000000       0.00000000       5.88242424       0.00000000       0.00000000      -0.09310704
2
Properties=species:S:1:pos:R:3:forces:R:3 energy=-4.288959264862061 pbc="F F F"
Sc       0.00000000       0.00000000       0.00000000       0.00000000       0.00000000       0.04515854
Sc       0.00000000       0.00000000       5.94121212       0.00000000       0.00000000      -0.04515854
2
Properties=species:S:1:pos:R:3:forces:R:3 energy=-4.287063337247155 pbc="F F F"
Sc       0.00000000       0.00000000       0.00000000       0.00000000       0.00000000       0.02544594
Sc       0.00000000       0.00000000       6.00000000       0.00000000       0.00000000      -0.02544594
