2
Properties=species:S:1:pos:R:3:forces:R:3 energy=23025.370599284204 pbc="F F F"
Se       0.00000000       0.00000000       0.00000000       0.00000000       0.00000000 -527737.93750000
Se       0.00000000       0.00000000       0.10000000       0.00000000       0.00000000  527737.93750000
2
Properties=species:S:1:pos:R:3:forces:R:3 energy=7189.520501627953 pbc="F F F"
Se       0.00000000       0.00000000       0.00000000       0.00000000       0.00000000 -121045.36718750
Se       0.00000000       0.00000000       0.15959596       0.00000000       0.00000000  121045.36718750
2
Properties=species:S:1:pos:R:3:forces:R:3 energy=2945.9809508467033 pbc="F F F"
Se       0.00000000       0.00000000       0.00000000       0.00000000       0.00000000  -39349.27734375
Se       0.00000000       0.00000000       0.21919192       0.00000000       0.00000000   39349.27734375
2
Properties=species:S:1:pos:R:3:forces:R:3 energy=1434.938226240496 pbc="F F F"
Se       0.00000000       0.00000000       0.00000000       0.00000000       0.00000000  -15614.70019531
Se       0.00000000       0.00000000       0.27878788       0.00000000       0.00000000   15614.70019531
2
Properties=species:S:1:pos:R:3:forces:R:3 energy=799.4528136428399 pbc="F F F"
Se       0.00000000       0.00000000       0.00000000       0.00000000       0.00000000   -7023.72119141
Se       0.00000000       0.00000000       0.33838384       0.00000000       0.00000000    7023.72119141
2
Properties=species:S:1:pos:R:3:forces:R:3 energy=501.7046752277768 pbc="F F F"
Se       0.00000000       0.00000000       0.00000000       0.00000000       0.00000000   -3453.98657227
Se       0.00000000       0.00000000       0.39797980       0.00000000       0.00000000    3453.98657227
2
Properties=species:S:1:pos:R:3:forces:R:3 energy=349.91826777291277 pbc="F F F"
Se       0.00000000       0.00000000       0.00000000       0.00000000       0.00000000   -1844.32348633
Se       0.00000000       0.00000000       0.45757576       0.00000000       0.00000000    1844.32348633
2
Properties=species:S:1:pos:R:3:forces:R:3 energy=265.2300964210401 pbc="F F F"
Se       0.00000000       0.00000000       0.00000000       0.00000000       0.00000000   -1091.18737793
Se       0.00000000       0.00000000       0.51717172       0.00000000       0.00000000    1091.18737793
2
Properties=species:S:1:pos:R:3:forces:R:3 energy=212.05115666822843 pbc="F F F"
Se       0.00000000       0.00000000       0.00000000       0.00000000       0.00000000    -738.77423096
Se       0.00000000       0.00000000       0.57676768       0.00000000       0.00000000     738.77423096
2
Properties=species:S:1:pos:R:3:forces:R:3 energy=173.36722732940717 pbc="F F F"
Se       0.00000000       0.00000000       0.00000000       0.00000000       0.00000000    -580.40197754
Se       0.00000000       0.00000000       0.63636364       0.00000000       0.00000000     580.40197754
2
Properties=species:S:1:pos:R:3:forces:R:3 energy=141.51304048875082 pbc="F F F"
Se       0.00000000       0.00000000       0.00000000       0.00000000       0.00000000    -490.29318237
Se       0.00000000       0.00000000       0.69595960       0.00000000       0.00000000     490.29318237
2
Properties=species:S:1:pos:R:3:forces:R:3 energy=115.38143369918382 pbc="F F F"
Se       0.00000000       0.00000000       0.00000000       0.00000000       0.00000000    -386.52453613
Se       0.00000000       0.00000000       0.75555556       0.00000000       0.00000000     386.52453613
2
Properties=species:S:1:pos:R:3:forces:R:3 energy=94.53135169453283 pbc="F F F"
Se       0.00000000       0.00000000       0.00000000       0.00000000       0.00000000    -318.77117920
Se       0.00000000       0.00000000       0.81515152       0.00000000       0.00000000     318.77117920
2
Properties=species:S:1:pos:R:3:forces:R:3 energy=77.65226290927207 pbc="F F F"
Se       0.00000000       0.00000000       0.00000000       0.00000000       0.00000000    -241.90260315
Se       0.00000000       0.00000000       0.87474747       0.00000000       0.00000000     241.90260315
2
Properties=species:S:1:pos:R:3:forces:R:3 energy=65.93309410353531 pbc="F F F"
Se       0.00000000       0.00000000       0.00000000       0.00000000       0.00000000    -157.33488464
Se       0.00000000       0.00000000       0.93434343       0.00000000       0.00000000     157.33488464
2
Properties=species:S:1:pos:R:3:forces:R:3 energy=57.59271359629426 pbc="F F F"
Se       0.00000000       0.00000000       0.00000000       0.00000000       0.00000000    -126.68866730
Se       0.00000000       0.00000000       0.99393939       0.00000000       0.00000000     126.68866730
2
Properties=species:S:1:pos:R:3:forces:R:3 energy=51.024016230624426 pbc="F F F"
Se       0.00000000       0.00000000       0.00000000       0.00000000       0.00000000     -98.48703003
Se       0.00000000       0.00000000       1.05353535       0.00000000       0.00000000      98.48703003
2
Properties=species:S:1:pos:R:3:forces:R:3 energy=44.91607377267303 pbc="F F F"
Se       0.00000000       0.00000000       0.00000000       0.00000000       0.00000000    -111.21137238
Se       0.00000000       0.00000000       1.11313131       0.00000000       0.00000000     111.21137238
2
Properties=species:S:1:pos:R:3:forces:R:3 energy=37.69023492093031 pbc="F F F"
Se       0.00000000       0.00000000       0.00000000       0.00000000       0.00000000    -129.76609802
Se       0.00000000       0.00000000       1.17272727       0.00000000       0.00000000     129.76609802
2
Properties=species:S:1:pos:R:3:forces:R:3 energy=29.811938676560793 pbc="F F F"
Se       0.00000000       0.00000000       0.00000000       0.00000000       0.00000000    -129.66986084
Se       0.00000000       0.00000000       1.23232323       0.00000000       0.00000000     129.66986084
2
Properties=species:S:1:pos:R:3:forces:R:3 energy=22.815502243067563 pbc="F F F"
Se       0.00000000       0.00000000       0.00000000       0.00000000       0.00000000    -102.90943909
Se       0.00000000       0.00000000       1.29191919       0.00000000       0.00000000     102.90943909
2
Properties=species:S:1:pos:R:3:forces:R:3 energy=17.406175625407293 pbc="F F F"
Se       0.00000000       0.00000000       0.00000000       0.00000000       0.00000000     -81.36295319
Se       0.00000000       0.00000000       1.35151515       0.00000000       0.00000000      81.36295319
2
Properties=species:S:1:pos:R:3:forces:R:3 energy=12.87435290318364 pbc="F F F"
Se       0.00000000       0.00000000       0.00000000       0.00000000       0.00000000     -71.83248901
Se       0.00000000       0.00000000       1.41111111       0.00000000       0.00000000      71.83248901
2
Properties=species:S:1:pos:R:3:forces:R:3 energy=8.784197582179697 pbc="F F F"
Se       0.00000000       0.00000000       0.00000000       0.00000000       0.00000000     -65.38886261
Se       0.00000000       0.00000000       1.47070707       0.00000000       0.00000000      65.38886261
2
Properties=species:S:1:pos:R:3:forces:R:3 energy=5.142725226456098 pbc="F F F"
Se       0.00000000       0.00000000       0.00000000       0.00000000       0.00000000     -56.03278732
Se       0.00000000       0.00000000       1.53030303       0.00000000       0.00000000      56.03278732
2
Properties=species:S:1:pos:R:3:forces:R:3 energy=2.1761706585222984 pbc="F F F"
Se       0.00000000       0.00000000       0.00000000       0.00000000       0.00000000     -43.31564713
Se       0.00000000       0.00000000       1.58989899       0.00000000       0.00000000      43.31564713
2
Properties=species:S:1:pos:R:3:forces:R:3 energy=-0.04158762194049162 pbc="F F F"
Se       0.00000000       0.00000000       0.00000000       0.00000000       0.00000000     -31.56026649
Se       0.00000000       0.00000000       1.64949495       0.00000000       0.00000000      31.56026649
2
Properties=species:S:1:pos:R:3:forces:R:3 energy=-1.6492945510514918 pbc="F F F"
Se       0.00000000       0.00000000       0.00000000       0.00000000       0.00000000     -22.92407990
Se       0.00000000       0.00000000       1.70909091       0.00000000       0.00000000      22.92407990
2
Properties=species:S:1:pos:R:3:forces:R:3 energy=-2.8283290277275315 pbc="F F F"
Se       0.00000000       0.00000000       0.00000000       0.00000000       0.00000000     -17.01082420
Se       0.00000000       0.00000000       1.76868687       0.00000000       0.00000000      17.01082420
2
Properties=species:S:1:pos:R:3:forces:R:3 energy=-3.7106000767623257 pbc="F F F"
Se       0.00000000       0.00000000       0.00000000       0.00000000       0.00000000     -12.80855560
Se       0.00000000       0.00000000       1.82828283       0.00000000       0.00000000      12.80855560
2
Properties=species:S:1:pos:R:3:forces:R:3 energy=-4.373918358426372 pbc="F F F"
Se       0.00000000       0.00000000       0.00000000       0.00000000       0.00000000      -9.57046318
Se       0.00000000       0.00000000       1.88787879       0.00000000       0.00000000       9.57046318
2
Properties=species:S:1:pos:R:3:forces:R:3 energy=-4.862414419944453 pbc="F F F"
Se       0.00000000       0.00000000       0.00000000       0.00000000       0.00000000      -6.89860010
Se       0.00000000       0.00000000       1.94747475       0.00000000       0.00000000       6.89860010
2
Properties=species:S:1:pos:R:3:forces:R:3 energy=-5.20412015401997 pbc="F F F"
Se       0.00000000       0.00000000       0.00000000       0.00000000       0.00000000      -4.63064957
Se       0.00000000       0.00000000       2.00707071       0.00000000       0.00000000       4.63064957
2
Properties=species:S:1:pos:R:3:forces:R:3 energy=-5.421595594910483 pbc="F F F"
Se       0.00000000       0.00000000       0.00000000       0.00000000       0.00000000      -2.72867584
Se       0.00000000       0.00000000       2.06666667       0.00000000       0.00000000       2.72867584
2
Properties=species:S:1:pos:R:3:forces:R:3 energy=-5.536693728738242 pbc="F F F"
Se       0.00000000       0.00000000       0.00000000       0.00000000       0.00000000      -1.19552708
Se       0.00000000       0.00000000       2.12626263       0.00000000       0.00000000       1.19552708
2
Properties=species:S:1:pos:R:3:forces:R:3 energy=-5.571248151356956 pbc="F F F"
Se       0.00000000       0.00000000       0.00000000       0.00000000       0.00000000      -0.02112417
Se       0.00000000       0.00000000       2.18585859       0.00000000       0.00000000       0.02112417
2
Properties=species:S:1:pos:R:3:forces:R:3 energy=-5.545379309423796 pbc="F F F"
Se       0.00000000       0.00000000       0.00000000       0.00000000       0.00000000       0.84429884
Se       0.00000000       0.00000000       2.24545455       0.00000000       0.00000000      -0.84429884
2
Properties=species:S:1:pos:R:3:forces:R:3 energy=-5.474976356708983 pbc="F F F"
Se       0.00000000       0.00000000       0.00000000       0.00000000       0.00000000       1.49081612
Se       0.00000000       0.00000000       2.30505051       0.00000000       0.00000000      -1.49081612
2
Properties=species:S:1:pos:R:3:forces:R:3 energy=-5.3698899079241365 pbc="F F F"
Se       0.00000000       0.00000000       0.00000000       0.00000000       0.00000000       2.02578497
Se       0.00000000       0.00000000       2.36464646       0.00000000       0.00000000      -2.02578497
2
Properties=species:S:1:pos:R:3:forces:R:3 energy=-5.233923937322248 pbc="F F F"
Se       0.00000000       0.00000000       0.00000000       0.00000000       0.00000000       2.53875375
Se       0.00000000       0.00000000       2.42424242       0.00000000       0.00000000      -2.53875375
2
Properties=species:S:1:pos:R:3:forces:R:3 energy=-5.066825075133602 pbc="F F F"
Se       0.00000000       0.00000000       0.00000000       0.00000000       0.00000000       3.07322216
Se       0.00000000       0.00000000       2.48383838       0.00000000       0.00000000      -3.07322216
2
Properties=species:S:1:pos:R:3:forces:R:3 energy=-4.867380251115253 pbc="F F F"
Se       0.00000000       0.00000000       0.00000000       0.00000000       0.00000000       3.61828446
Se       0.00000000       0.00000000       2.54343434       0.00000000       0.00000000      -3.61828446
2
Properties=species:S:1:pos:R:3:forces:R:3 energy=-4.636421788846282 pbc="F F F"
Se       0.00000000       0.00000000       0.00000000       0.00000000       0.00000000       4.11892462
Se       0.00000000       0.00000000       2.60303030       0.00000000       0.00000000      -4.11892462
2
Properties=species:S:1:pos:R:3:forces:R:3 energy=-4.378862755795276 pbc="F F F"
Se       0.00000000       0.00000000       0.00000000       0.00000000       0.00000000       4.49770641
Se       0.00000000       0.00000000       2.66262626       0.00000000       0.00000000      -4.49770641
2
Properties=species:S:1:pos:R:3:forces:R:3 energy=-4.104145492855977 pbc="F F F"
Se       0.00000000       0.00000000       0.00000000       0.00000000       0.00000000       4.68597555
Se       0.00000000       0.00000000       2.72222222       0.00000000       0.00000000      -4.68597555
2
Properties=species:S:1:pos:R:3:forces:R:3 energy=-3.824709701284723 pbc="F F F"
Se       0.00000000       0.00000000       0.00000000       0.00000000       0.00000000       4.65578842
Se       0.00000000       0.00000000       2.78181818       0.00000000       0.00000000      -4.65578842
2
Properties=species:S:1:pos:R:3:forces:R:3 energy=-3.5530953163435637 pbc="F F F"
Se       0.00000000       0.00000000       0.00000000       0.00000000       0.00000000       4.43130970
Se       0.00000000       0.00000000       2.84141414       0.00000000       0.00000000      -4.43130970
2
Properties=species:S:1:pos:R:3:forces:R:3 energy=-3.2992329395054703 pbc="F F F"
Se       0.00000000       0.00000000       0.00000000       0.00000000       0.00000000       4.07115602
Se       0.00000000       0.00000000       2.90101010       0.00000000       0.00000000      -4.07115602
2
Properties=species:S:1:pos:R:3:forces:R:3 energy=-3.069231079170179 pbc="F F F"
Se       0.00000000       0.00000000       0.00000000       0.00000000       0.00000000       3.64101219
Se       0.00000000       0.00000000       2.96060606       0.00000000       0.00000000      -3.64101219
2
Properties=species:S:1:pos:R:3:forces:R:3 energy=-2.8655240407072395 pbc="F F F"
Se       0.00000000       0.00000000       0.00000000       0.00000000       0.00000000       3.19669938
Se       0.00000000       0.00000000       3.02020202       0.00000000       0.00000000      -3.19669938
2
Properties=species:S:1:pos:R:3:forces:R:3 energy=-2.6876795793920705 pbc="F F F"
Se       0.00000000       0.00000000       0.00000000       0.00000000       0.00000000       2.77843428
Se       0.00000000       0.00000000       3.07979798       0.00000000       0.00000000      -2.77843428
2
Properties=species:S:1:pos:R:3:forces:R:3 energy=-2.5333731547479013 pbc="F F F"
Se       0.00000000       0.00000000       0.00000000       0.00000000       0.00000000       2.40915561
Se       0.00000000       0.00000000       3.13939394       0.00000000       0.00000000      -2.40915561
2
Properties=species:S:1:pos:R:3:forces:R:3 energy=-2.399416369261611 pbc="F F F"
Se       0.00000000       0.00000000       0.00000000       0.00000000       0.00000000       2.09540558
Se       0.00000000       0.00000000       3.19898990       0.00000000       0.00000000      -2.09540558
2
Properties=species:S:1:pos:R:3:forces:R:3 energy=-2.2826228229717187 pbc="F F F"
Se       0.00000000       0.00000000       0.00000000       0.00000000       0.00000000       1.83153987
Se       0.00000000       0.00000000       3.25858586       0.00000000       0.00000000      -1.83153987
2
Properties=species:S:1:pos:R:3:forces:R:3 energy=-2.1803525514611923 pbc="F F F"
Se       0.00000000       0.00000000       0.00000000       0.00000000       0.00000000       1.60589528
Se       0.00000000       0.00000000       3.31818182       0.00000000       0.00000000      -1.60589528
2
Properties=species:S:1:pos:R:3:forces:R:3 energy=-2.090696684550821 pbc="F F F"
Se       0.00000000       0.00000000       0.00000000       0.00000000       0.00000000       1.40636897
Se       0.00000000       0.00000000       3.37777778       0.00000000       0.00000000      -1.40636897
2
Properties=species:S:1:pos:R:3:forces:R:3 energy=-2.012390061554198 pbc="F F F"
Se       0.00000000       0.00000000       0.00000000       0.00000000       0.00000000       1.22383833
Se       0.00000000       0.00000000       3.43737374       0.00000000       0.00000000      -1.22383833
2
Properties=species:S:1:pos:R:3:forces:R:3 energy=-1.94458764333581 pbc="F F F"
Se       0.00000000       0.00000000       0.00000000       0.00000000       0.00000000       1.05336559
Se       0.00000000       0.00000000       3.49696970       0.00000000       0.00000000      -1.05336559
2
Properties=species:S:1:pos:R:3:forces:R:3 energy=-1.8866229265981884 pbc="F F F"
Se       0.00000000       0.00000000       0.00000000       0.00000000       0.00000000       0.89372921
Se       0.00000000       0.00000000       3.55656566       0.00000000       0.00000000      -0.89372921
2
Properties=species:S:1:pos:R:3:forces:R:3 energy=-1.8378236644952795 pbc="F F F"
Se       0.00000000       0.00000000       0.00000000       0.00000000       0.00000000       0.74614465
Se       0.00000000       0.00000000       3.61616162       0.00000000       0.00000000      -0.74614465
2
Properties=species:S:1:pos:R:3:forces:R:3 energy=-1.7974058725669706 pbc="F F F"
Se       0.00000000       0.00000000       0.00000000       0.00000000       0.00000000       0.61281407
Se       0.00000000       0.00000000       3.67575758       0.00000000       0.00000000      -0.61281407
2
Properties=species:S:1:pos:R:3:forces:R:3 energy=-1.7644566816083278 pbc="F F F"
Se       0.00000000       0.00000000       0.00000000       0.00000000       0.00000000       0.49578586
Se       0.00000000       0.00000000       3.73535354       0.00000000       0.00000000      -0.49578586
2
Properties=species:S:1:pos:R:3:forces:R:3 energy=-1.7379637570215383 pbc="F F F"
Se       0.00000000       0.00000000       0.00000000       0.00000000       0.00000000       0.39626551
Se       0.00000000       0.00000000       3.79494949       0.00000000       0.00000000      -0.39626551
2
Properties=species:S:1:pos:R:3:forces:R:3 energy=-1.7168746587064614 pbc="F F F"
Se       0.00000000       0.00000000       0.00000000       0.00000000       0.00000000       0.31432658
Se       0.00000000       0.00000000       3.85454545       0.00000000       0.00000000      -0.31432658
2
Properties=species:S:1:pos:R:3:forces:R:3 energy=-1.70016874568499 pbc="F F F"
Se       0.00000000       0.00000000       0.00000000       0.00000000       0.00000000       0.24895391
Se       0.00000000       0.00000000       3.91414141       0.00000000       0.00000000      -0.24895391
2
Properties=species:S:1:pos:R:3:forces:R:3 energy=-1.6869093766826273 pbc="F F F"
Se       0.00000000       0.00000000       0.00000000       0.00000000       0.00000000       0.19828431
Se       0.00000000       0.00000000       3.97373737       0.00000000       0.00000000      -0.19828431
2
Properties=species:S:1:pos:R:3:forces:R:3 energy=-1.6762893792169238 pbc="F F F"
Se       0.00000000       0.00000000       0.00000000       0.00000000       0.00000000       0.15997230
Se       0.00000000       0.00000000       4.03333333       0.00000000       0.00000000      -0.15997230
2
Properties=species:S:1:pos:R:3:forces:R:3 energy=-1.667646273124539 pbc="F F F"
Se       0.00000000       0.00000000       0.00000000       0.00000000       0.00000000       0.13152437
Se       0.00000000       0.00000000       4.09292929       0.00000000       0.00000000      -0.13152437
2
Properties=species:S:1:pos:R:3:forces:R:3 energy=-1.6604633094307213 pbc="F F F"
Se       0.00000000       0.00000000       0.00000000       0.00000000       0.00000000       0.11060070
Se       0.00000000       0.00000000       4.15252525       0.00000000       0.00000000      -0.11060070
2
Properties=species:S:1:pos:R:3:forces:R:3 energy=-1.654353952550822 pbc="F F F"
Se       0.00000000       0.00000000       0.00000000       0.00000000       0.00000000       0.09521170
Se       0.00000000       0.00000000       4.21212121       0.00000000       0.00000000      -0.09521170
2
Properties=species:S:1:pos:R:3:forces:R:3 energy=-1.649035476848554 pbc="F F F"
Se       0.00000000       0.00000000       0.00000000       0.00000000       0.00000000       0.08383570
Se       0.00000000       0.00000000       4.27171717       0.00000000       0.00000000      -0.08383570
2
Properties=species:S:1:pos:R:3:forces:R:3 energy=-1.6443023687092229 pbc="F F F"
Se       0.00000000       0.00000000       0.00000000       0.00000000       0.00000000       0.07545382
Se       0.00000000       0.00000000       4.33131313       0.00000000       0.00000000      -0.07545382
2
Properties=species:S:1:pos:R:3:forces:R:3 energy=-1.6399944917397302 pbc="F F F"
Se       0.00000000       0.00000000       0.00000000       0.00000000       0.00000000       0.06947840
Se       0.00000000       0.00000000       4.39090909       0.00000000       0.00000000      -0.06947840
2
Properties=species:S:1:pos:R:3:forces:R:3 energy=-1.6359795059822126 pbc="F F F"
Se       0.00000000       0.00000000       0.00000000       0.00000000       0.00000000       0.06557781
Se       0.00000000       0.00000000       4.45050505       0.00000000       0.00000000      -0.06557781
2
Properties=species:S:1:pos:R:3:forces:R:3 energy=-1.6321434377088777 pbc="F F F"
Se       0.00000000       0.00000000       0.00000000       0.00000000       0.00000000       0.06342082
Se       0.00000000       0.00000000       4.51010101       0.00000000       0.00000000      -0.06342082
2
Properties=species:S:1:pos:R:3:forces:R:3 energy=-1.6283966973232389 pbc="F F F"
Se       0.00000000       0.00000000       0.00000000       0.00000000       0.00000000       0.06243785
Se       0.00000000       0.00000000       4.56969697       0.00000000       0.00000000      -0.06243785
2
Properties=species:S:1:pos:R:3:forces:R:3 energy=-1.6246960534671708 pbc="F F F"
Se       0.00000000       0.00000000       0.00000000       0.00000000       0.00000000       0.06169871
Se       0.00000000       0.00000000       4.62929293       0.00000000       0.00000000      -0.06169871
2
Properties=species:S:1:pos:R:3:forces:R:3 energy=-1.621062023321983 pbc="F F F"
Se       0.00000000       0.00000000       0.00000000       0.00000000       0.00000000       0.06000042
Se       0.00000000       0.00000000       4.68888889       0.00000000       0.00000000      -0.06000042
2
Properties=species:S:1:pos:R:3:forces:R:3 energy=-1.6175873824013993 pbc="F F F"
Se       0.00000000       0.00000000       0.00000000       0.00000000       0.00000000       0.05615877
Se       0.00000000       0.00000000       4.74848485       0.00000000       0.00000000      -0.05615877
2
Properties=species:S:1:pos:R:3:forces:R:3 energy=-1.6144258246218963 pbc="F F F"
Se       0.00000000       0.00000000       0.00000000       0.00000000       0.00000000       0.04945016
Se       0.00000000       0.00000000       4.80808081       0.00000000       0.00000000      -0.04945016
2
Properties=species:S:1:pos:R:3:forces:R:3 energy=-1.611747850489831 pbc="F F F"
Se       0.00000000       0.00000000       0.00000000       0.00000000       0.00000000       0.04003953
Se       0.00000000       0.00000000       4.86767677       0.00000000       0.00000000      -0.04003953
2
Properties=species:S:1:pos:R:3:forces:R:3 energy=-1.6096816361260038 pbc="F F F"
Se       0.00000000       0.00000000       0.00000000       0.00000000       0.00000000       0.02923762
Se       0.00000000       0.00000000       4.92727273       0.00000000       0.00000000      -0.02923762
2
Properties=species:S:1:pos:R:3:forces:R:3 energy=-1.6082447786118093 pbc="F F F"
Se       0.00000000       0.00000000       0.00000000       0.00000000       0.00000000       0.01936469
Se       0.00000000       0.00000000       4.98686869       0.00000000       0.00000000      -0.01936469
2
Properties=species:S:1:pos:R:3:forces:R:3 energy=-1.6073009695401503 pbc="F F F"
Se       0.00000000       0.00000000       0.00000000       0.00000000       0.00000000       0.01312956
Se       0.00000000       0.00000000       5.04646465       0.00000000       0.00000000      -0.01312956
2
Properties=species:S:1:pos:R:3:forces:R:3 energy=-1.6065667954886313 pbc="F F F"
Se       0.00000000       0.00000000       0.00000000       0.00000000       0.00000000       0.01253172
Se       0.00000000       0.00000000       5.10606061       0.00000000       0.00000000      -0.01253172
2
Properties=species:S:1:pos:R:3:forces:R:3 energy=-1.6056926490329821 pbc="F F F"
Se       0.00000000       0.00000000       0.00000000       0.00000000       0.00000000       0.01759484
Se       0.00000000       0.00000000       5.16565657       0.00000000       0.00000000      -0.01759484
2
Properties=species:S:1:pos:R:3:forces:R:3 energy=-1.604409375180139 pbc="F F F"
Se       0.00000000       0.00000000       0.00000000       0.00000000       0.00000000       0.02561006
Se       0.00000000       0.00000000       5.22525253       0.00000000       0.00000000      -0.02561006
2
Properties=species:S:1:pos:R:3:forces:R:3 energy=-1.602672413614288 pbc="F F F"
Se       0.00000000       0.00000000       0.00000000       0.00000000       0.00000000       0.03207494
Se       0.00000000       0.00000000       5.28484848       0.00000000       0.00000000      -0.03207494
2
Properties=species:S:1:pos:R:3:forces:R:3 energy=-1.6006676977648087 pbc="F F F"
Se       0.00000000       0.00000000       0.00000000       0.00000000       0.00000000       0.03474117
Se       0.00000000       0.00000000       5.34444444       0.00000000       0.00000000      -0.03474117
2
Properties=species:S:1:pos:R:3:forces:R:3 energy=-1.598496114944431 pbc="F F F"
Se       0.00000000       0.00000000       0.00000000       0.00000000       0.00000000       0.03939978
Se       0.00000000       0.00000000       5.40404040       0.00000000       0.00000000      -0.03939978
2
Properties=species:S:1:pos:R:3:forces:R:3 energy=-1.5957518923944511 pbc="F F F"
Se       0.00000000       0.00000000       0.00000000       0.00000000       0.00000000       0.05423373
Se       0.00000000       0.00000000       5.46363636       0.00000000       0.00000000      -0.05423373
2
Properties=species:S:1:pos:R:3:forces:R:3 energy=-1.5920418907690124 pbc="F F F"
Se       0.00000000       0.00000000       0.00000000       0.00000000       0.00000000       0.06844426
Se       0.00000000       0.00000000       5.52323232       0.00000000       0.00000000      -0.06844426
2
Properties=species:S:1:pos:R:3:forces:R:3 energy=-1.587906634113109 pbc="F F F"
Se       0.00000000       0.00000000       0.00000000       0.00000000       0.00000000       0.06802588
Se       0.00000000       0.00000000       5.58282828       0.00000000       0.00000000      -0.06802588
2
Properties=species:S:1:pos:R:3:forces:R:3 energy=-1.5840590326078914 pbc="F F F"
Se       0.00000000       0.00000000       0.00000000       0.00000000       0.00000000       0.06134660
Se       0.00000000       0.00000000       5.64242424       0.00000000       0.00000000      -0.06134660
2
Properties=species:S:1:pos:R:3:forces:R:3 energy=-1.5804638852626887 pbc="F F F"
Se       0.00000000       0.00000000       0.00000000       0.00000000       0.00000000       0.06050031
Se       0.00000000       0.00000000       5.70202020       0.00000000       0.00000000      -0.06050031
2
Properties=species:S:1:pos:R:3:forces:R:3 energy=-1.5768337802641175 pbc="F F F"
Se       0.00000000       0.00000000       0.00000000       0.00000000       0.00000000       0.05989871
Se       0.00000000       0.00000000       5.76161616       0.00000000       0.00000000      -0.05989871
2
Properties=species:S:1:pos:R:3:forces:R:3 energy=-1.573645478130525 pbc="F F F"
Se       0.00000000       0.00000000       0.00000000       0.00000000       0.00000000       0.04444053
Se       0.00000000       0.00000000       5.82121212       0.00000000       0.00000000      -0.04444053
2
Properties=species:S:1:pos:R:3:forces:R:3 energy=-1.571664757739039 pbc="F F F"
Se       0.00000000       0.00000000       0.00000000       0.00000000       0.00000000       0.02278238
Se       0.00000000       0.00000000       5.88080808       0.00000000       0.00000000      -0.02278238
2
Properties=species:S:1:pos:R:3:forces:R:3 energy=-1.5707724337386062 pbc="F F F"
Se       0.00000000       0.00000000       0.00000000       0.00000000       0.00000000       0.00848846
Se       0.00000000       0.00000000       5.94040404       0.00000000       0.00000000      -0.00848846
2
Properties=species:S:1:pos:R:3:forces:R:3 energy=-1.570462304047867 pbc="F F F"
Se       0.00000000       0.00000000       0.00000000       0.00000000       0.00000000       0.00354915
Se       0.00000000       0.00000000       6.00000000       0.00000000       0.00000000      -0.00354915
