2
Properties=species:S:1:pos:R:3:forces:R:3 energy=5173.046868815453 pbc="F F F"
Se       0.00000000       0.00000000       0.00000000       0.00000000       0.00000000  -80011.90625000
Se       0.00000000       0.00000000       0.18000000       0.00000000       0.00000000   80011.90625000
2
Properties=species:S:1:pos:R:3:forces:R:3 energy=2287.5788512373283 pbc="F F F"
Se       0.00000000       0.00000000       0.00000000       0.00000000       0.00000000  -28535.24414062
Se       0.00000000       0.00000000       0.23878788       0.00000000       0.00000000   28535.24414062
2
Properties=species:S:1:pos:R:3:forces:R:3 energy=1177.2291197951836 pbc="F F F"
Se       0.00000000       0.00000000       0.00000000       0.00000000       0.00000000  -12003.01269531
Se       0.00000000       0.00000000       0.29757576       0.00000000       0.00000000   12003.01269531
2
Properties=species:S:1:pos:R:3:forces:R:3 energy=686.3109069077265 pbc="F F F"
Se       0.00000000       0.00000000       0.00000000       0.00000000       0.00000000   -5621.70703125
Se       0.00000000       0.00000000       0.35636364       0.00000000       0.00000000    5621.70703125
2
Properties=species:S:1:pos:R:3:forces:R:3 energy=447.7094359699643 pbc="F F F"
Se       0.00000000       0.00000000       0.00000000       0.00000000       0.00000000   -2857.26074219
Se       0.00000000       0.00000000       0.41515152       0.00000000       0.00000000    2857.26074219
2
Properties=species:S:1:pos:R:3:forces:R:3 energy=321.98796993085375 pbc="F F F"
Se       0.00000000       0.00000000       0.00000000       0.00000000       0.00000000   -1578.52954102
Se       0.00000000       0.00000000       0.47393939       0.00000000       0.00000000    1578.52954102
2
Properties=species:S:1:pos:R:3:forces:R:3 energy=249.21744690074638 pbc="F F F"
Se       0.00000000       0.00000000       0.00000000       0.00000000       0.00000000    -971.51892090
Se       0.00000000       0.00000000       0.53272727       0.00000000       0.00000000     971.51892090
2
Properties=species:S:1:pos:R:3:forces:R:3 energy=201.55111091403597 pbc="F F F"
Se       0.00000000       0.00000000       0.00000000       0.00000000       0.00000000    -686.94989014
Se       0.00000000       0.00000000       0.59151515       0.00000000       0.00000000     686.94989014
2
Properties=species:S:1:pos:R:3:forces:R:3 energy=165.44011859960477 pbc="F F F"
Se       0.00000000       0.00000000       0.00000000       0.00000000       0.00000000    -557.47955322
Se       0.00000000       0.00000000       0.65030303       0.00000000       0.00000000     557.47955322
2
Properties=species:S:1:pos:R:3:forces:R:3 energy=135.2155857054516 pbc="F F F"
Se       0.00000000       0.00000000       0.00000000       0.00000000       0.00000000    -468.57330322
Se       0.00000000       0.00000000       0.70909091       0.00000000       0.00000000     468.57330322
2
Properties=species:S:1:pos:R:3:forces:R:3 energy=110.73001317561419 pbc="F F F"
Se       0.00000000       0.00000000       0.00000000       0.00000000       0.00000000    -368.89370728
Se       0.00000000       0.00000000       0.76787879       0.00000000       0.00000000     368.89370728
2
Properties=species:S:1:pos:R:3:forces:R:3 energy=90.92973588380578 pbc="F F F"
Se       0.00000000       0.00000000       0.00000000       0.00000000       0.00000000    -306.59838867
Se       0.00000000       0.00000000       0.82666667       0.00000000       0.00000000     306.59838867
2
Properties=species:S:1:pos:R:3:forces:R:3 energy=75.15231644174666 pbc="F F F"
Se       0.00000000       0.00000000       0.00000000       0.00000000       0.00000000    -224.99415588
Se       0.00000000       0.00000000       0.88545455       0.00000000       0.00000000     224.99415588
2
Properties=species:S:1:pos:R:3:forces:R:3 energy=64.41876625899674 pbc="F F F"
Se       0.00000000       0.00000000       0.00000000       0.00000000       0.00000000    -149.03547668
Se       0.00000000       0.00000000       0.94424242       0.00000000       0.00000000     149.03547668
2
Properties=species:S:1:pos:R:3:forces:R:3 energy=56.46440264180831 pbc="F F F"
Se       0.00000000       0.00000000       0.00000000       0.00000000       0.00000000    -121.44384003
Se       0.00000000       0.00000000       1.00303030       0.00000000       0.00000000     121.44384003
2
Properties=species:S:1:pos:R:3:forces:R:3 energy=50.210658173997615 pbc="F F F"
Se       0.00000000       0.00000000       0.00000000       0.00000000       0.00000000     -98.08470154
Se       0.00000000       0.00000000       1.06181818       0.00000000       0.00000000      98.08470154
2
Properties=species:S:1:pos:R:3:forces:R:3 energy=44.07461288880769 pbc="F F F"
Se       0.00000000       0.00000000       0.00000000       0.00000000       0.00000000    -113.93470764
Se       0.00000000       0.00000000       1.12060606       0.00000000       0.00000000     113.93470764
2
Properties=species:S:1:pos:R:3:forces:R:3 energy=36.820629248156514 pbc="F F F"
Se       0.00000000       0.00000000       0.00000000       0.00000000       0.00000000    -131.08175659
Se       0.00000000       0.00000000       1.17939394       0.00000000       0.00000000     131.08175659
2
Properties=species:S:1:pos:R:3:forces:R:3 energy=29.05728132084159 pbc="F F F"
Se       0.00000000       0.00000000       0.00000000       0.00000000       0.00000000    -127.91302490
Se       0.00000000       0.00000000       1.23818182       0.00000000       0.00000000     127.91302490
2
Properties=species:S:1:pos:R:3:forces:R:3 energy=22.301968127992936 pbc="F F F"
Se       0.00000000       0.00000000       0.00000000       0.00000000       0.00000000    -100.46718597
Se       0.00000000       0.00000000       1.29696970       0.00000000       0.00000000     100.46718597
2
Properties=species:S:1:pos:R:3:forces:R:3 energy=17.063009730255324 pbc="F F F"
Se       0.00000000       0.00000000       0.00000000       0.00000000       0.00000000     -80.41687775
Se       0.00000000       0.00000000       1.35575758       0.00000000       0.00000000      80.41687775
2
Properties=species:S:1:pos:R:3:forces:R:3 energy=12.62831587930252 pbc="F F F"
Se       0.00000000       0.00000000       0.00000000       0.00000000       0.00000000     -71.44121552
Se       0.00000000       0.00000000       1.41454545       0.00000000       0.00000000      71.44121552
2
Properties=species:S:1:pos:R:3:forces:R:3 energy=8.612892359738227 pbc="F F F"
Se       0.00000000       0.00000000       0.00000000       0.00000000       0.00000000     -65.07154083
Se       0.00000000       0.00000000       1.47333333       0.00000000       0.00000000      65.07154083
2
Properties=species:S:1:pos:R:3:forces:R:3 energy=5.041173590676592 pbc="F F F"
Se       0.00000000       0.00000000       0.00000000       0.00000000       0.00000000     -55.67564011
Se       0.00000000       0.00000000       1.53212121       0.00000000       0.00000000      55.67564011
2
Properties=species:S:1:pos:R:3:forces:R:3 energy=2.1325264836948965 pbc="F F F"
Se       0.00000000       0.00000000       0.00000000       0.00000000       0.00000000     -43.09718704
Se       0.00000000       0.00000000       1.59090909       0.00000000       0.00000000      43.09718704
2
Properties=species:S:1:pos:R:3:forces:R:3 energy=-0.04795393386033028 pbc="F F F"
Se       0.00000000       0.00000000       0.00000000       0.00000000       0.00000000     -31.52548599
Se       0.00000000       0.00000000       1.64969697       0.00000000       0.00000000      31.52548599
2
Properties=species:S:1:pos:R:3:forces:R:3 energy=-1.6353818534477484 pbc="F F F"
Se       0.00000000       0.00000000       0.00000000       0.00000000       0.00000000     -22.99648476
Se       0.00000000       0.00000000       1.70848485       0.00000000       0.00000000      22.99648476
2
Properties=species:S:1:pos:R:3:forces:R:3 energy=-2.804189729472774 pbc="F F F"
Se       0.00000000       0.00000000       0.00000000       0.00000000       0.00000000     -17.12760353
Se       0.00000000       0.00000000       1.76727273       0.00000000       0.00000000      17.12760353
2
Properties=species:S:1:pos:R:3:forces:R:3 energy=-3.6819859903994168 pbc="F F F"
Se       0.00000000       0.00000000       0.00000000       0.00000000       0.00000000     -12.94448090
Se       0.00000000       0.00000000       1.82606061       0.00000000       0.00000000      12.94448090
2
Properties=species:S:1:pos:R:3:forces:R:3 energy=-4.344693434832406 pbc="F F F"
Se       0.00000000       0.00000000       0.00000000       0.00000000       0.00000000      -9.71925354
Se       0.00000000       0.00000000       1.88484848       0.00000000       0.00000000       9.71925354
2
Properties=species:S:1:pos:R:3:forces:R:3 energy=-4.835632285434779 pbc="F F F"
Se       0.00000000       0.00000000       0.00000000       0.00000000       0.00000000      -7.05762768
Se       0.00000000       0.00000000       1.94363636       0.00000000       0.00000000       7.05762768
2
Properties=species:S:1:pos:R:3:forces:R:3 energy=-5.182224381954638 pbc="F F F"
Se       0.00000000       0.00000000       0.00000000       0.00000000       0.00000000      -4.79425907
Se       0.00000000       0.00000000       2.00242424       0.00000000       0.00000000       4.79425907
2
Properties=species:S:1:pos:R:3:forces:R:3 energy=-5.406279738149198 pbc="F F F"
Se       0.00000000       0.00000000       0.00000000       0.00000000       0.00000000      -2.88749528
Se       0.00000000       0.00000000       2.06121212       0.00000000       0.00000000       2.88749528
2
Properties=species:S:1:pos:R:3:forces:R:3 energy=-5.528758182961707 pbc="F F F"
Se       0.00000000       0.00000000       0.00000000       0.00000000       0.00000000      -1.33932185
Se       0.00000000       0.00000000       2.12000000       0.00000000       0.00000000       1.33932185
2
Properties=species:S:1:pos:R:3:forces:R:3 energy=-5.570670058395963 pbc="F F F"
Se       0.00000000       0.00000000       0.00000000       0.00000000       0.00000000      -0.14291754
Se       0.00000000       0.00000000       2.17878788       0.00000000       0.00000000       0.14291754
2
Properties=species:S:1:pos:R:3:forces:R:3 energy=-5.551642123091468 pbc="F F F"
Se       0.00000000       0.00000000       0.00000000       0.00000000       0.00000000       0.74470168
Se       0.00000000       0.00000000       2.23757576       0.00000000       0.00000000      -0.74470168
2
Properties=species:S:1:pos:R:3:forces:R:3 energy=-5.487559994889524 pbc="F F F"
Se       0.00000000       0.00000000       0.00000000       0.00000000       0.00000000       1.40604508
Se       0.00000000       0.00000000       2.29636364       0.00000000       0.00000000      -1.40604508
2
Properties=species:S:1:pos:R:3:forces:R:3 energy=-5.388735755997116 pbc="F F F"
Se       0.00000000       0.00000000       0.00000000       0.00000000       0.00000000       1.94389880
Se       0.00000000       0.00000000       2.35515152       0.00000000       0.00000000      -1.94389880
2
Properties=species:S:1:pos:R:3:forces:R:3 energy=-5.259617803079878 pbc="F F F"
Se       0.00000000       0.00000000       0.00000000       0.00000000       0.00000000       2.44904518
Se       0.00000000       0.00000000       2.41393939       0.00000000       0.00000000      -2.44904518
2
Properties=species:S:1:pos:R:3:forces:R:3 energy=-5.1004071921798575 pbc="F F F"
Se       0.00000000       0.00000000       0.00000000       0.00000000       0.00000000       2.97174811
Se       0.00000000       0.00000000       2.47272727       0.00000000       0.00000000      -2.97174811
2
Properties=species:S:1:pos:R:3:forces:R:3 energy=-4.909866661071928 pbc="F F F"
Se       0.00000000       0.00000000       0.00000000       0.00000000       0.00000000       3.51057243
Se       0.00000000       0.00000000       2.53151515       0.00000000       0.00000000      -3.51057243
2
Properties=species:S:1:pos:R:3:forces:R:3 energy=-4.688216442318613 pbc="F F F"
Se       0.00000000       0.00000000       0.00000000       0.00000000       0.00000000       4.01950693
Se       0.00000000       0.00000000       2.59030303       0.00000000       0.00000000      -4.01950693
2
Properties=species:S:1:pos:R:3:forces:R:3 energy=-4.439269660441766 pbc="F F F"
Se       0.00000000       0.00000000       0.00000000       0.00000000       0.00000000       4.42639017
Se       0.00000000       0.00000000       2.64909091       0.00000000       0.00000000      -4.42639017
2
Properties=species:S:1:pos:R:3:forces:R:3 energy=-4.171190732751143 pbc="F F F"
Se       0.00000000       0.00000000       0.00000000       0.00000000       0.00000000       4.66045713
Se       0.00000000       0.00000000       2.70787879       0.00000000       0.00000000      -4.66045713
2
Properties=species:S:1:pos:R:3:forces:R:3 energy=-3.8954802162167956 pbc="F F F"
Se       0.00000000       0.00000000       0.00000000       0.00000000       0.00000000       4.68365574
Se       0.00000000       0.00000000       2.76666667       0.00000000       0.00000000      -4.68365574
2
Properties=species:S:1:pos:R:3:forces:R:3 energy=-3.624438467106998 pbc="F F F"
Se       0.00000000       0.00000000       0.00000000       0.00000000       0.00000000       4.50748396
Se       0.00000000       0.00000000       2.82545455       0.00000000       0.00000000      -4.50748396
2
Properties=species:S:1:pos:R:3:forces:R:3 energy=-3.368437829004464 pbc="F F F"
Se       0.00000000       0.00000000       0.00000000       0.00000000       0.00000000       4.18230391
Se       0.00000000       0.00000000       2.88424242       0.00000000       0.00000000      -4.18230391
2
Properties=species:S:1:pos:R:3:forces:R:3 energy=-3.134372953223877 pbc="F F F"
Se       0.00000000       0.00000000       0.00000000       0.00000000       0.00000000       3.77156806
Se       0.00000000       0.00000000       2.94303030       0.00000000       0.00000000      -3.77156806
2
Properties=species:S:1:pos:R:3:forces:R:3 energy=-2.9255361240700357 pbc="F F F"
Se       0.00000000       0.00000000       0.00000000       0.00000000       0.00000000       3.33251429
Se       0.00000000       0.00000000       3.00181818       0.00000000       0.00000000      -3.33251429
2
Properties=species:S:1:pos:R:3:forces:R:3 energy=-2.742243581437178 pbc="F F F"
Se       0.00000000       0.00000000       0.00000000       0.00000000       0.00000000       2.90853572
Se       0.00000000       0.00000000       3.06060606       0.00000000       0.00000000      -2.90853572
2
Properties=species:S:1:pos:R:3:forces:R:3 energy=-2.582723530981734 pbc="F F F"
Se       0.00000000       0.00000000       0.00000000       0.00000000       0.00000000       2.52691340
Se       0.00000000       0.00000000       3.11939394       0.00000000       0.00000000      -2.52691340
2
Properties=species:S:1:pos:R:3:forces:R:3 energy=-2.444082609846706 pbc="F F F"
Se       0.00000000       0.00000000       0.00000000       0.00000000       0.00000000       2.19880724
Se       0.00000000       0.00000000       3.17818182       0.00000000       0.00000000      -2.19880724
2
Properties=species:S:1:pos:R:3:forces:R:3 energy=-2.323183819065737 pbc="F F F"
Se       0.00000000       0.00000000       0.00000000       0.00000000       0.00000000       1.92215836
Se       0.00000000       0.00000000       3.23696970       0.00000000       0.00000000      -1.92215836
2
Properties=species:S:1:pos:R:3:forces:R:3 energy=-2.2172664688895716 pbc="F F F"
Se       0.00000000       0.00000000       0.00000000       0.00000000       0.00000000       1.68712282
Se       0.00000000       0.00000000       3.29575758       0.00000000       0.00000000      -1.68712282
2
Properties=species:S:1:pos:R:3:forces:R:3 energy=-2.1242396617215475 pbc="F F F"
Se       0.00000000       0.00000000       0.00000000       0.00000000       0.00000000       1.48171675
Se       0.00000000       0.00000000       3.35454545       0.00000000       0.00000000      -1.48171675
2
Properties=species:S:1:pos:R:3:forces:R:3 energy=-2.042672352229098 pbc="F F F"
Se       0.00000000       0.00000000       0.00000000       0.00000000       0.00000000       1.29583442
Se       0.00000000       0.00000000       3.41333333       0.00000000       0.00000000      -1.29583442
2
Properties=species:S:1:pos:R:3:forces:R:3 energy=-1.971624732723304 pbc="F F F"
Se       0.00000000       0.00000000       0.00000000       0.00000000       0.00000000       1.12312794
Se       0.00000000       0.00000000       3.47212121       0.00000000       0.00000000      -1.12312794
2
Properties=species:S:1:pos:R:3:forces:R:3 energy=-1.9104132042930078 pbc="F F F"
Se       0.00000000       0.00000000       0.00000000       0.00000000       0.00000000       0.96108735
Se       0.00000000       0.00000000       3.53090909       0.00000000       0.00000000      -0.96108735
2
Properties=species:S:1:pos:R:3:forces:R:3 energy=-1.8584095206552542 pbc="F F F"
Se       0.00000000       0.00000000       0.00000000       0.00000000       0.00000000       0.81006026
Se       0.00000000       0.00000000       3.58969697       0.00000000       0.00000000      -0.81006026
2
Properties=species:S:1:pos:R:3:forces:R:3 energy=-1.8149169550460253 pbc="F F F"
Se       0.00000000       0.00000000       0.00000000       0.00000000       0.00000000       0.67191589
Se       0.00000000       0.00000000       3.64848485       0.00000000       0.00000000      -0.67191589
2
Properties=species:S:1:pos:R:3:forces:R:3 energy=-1.779113964911438 pbc="F F F"
Se       0.00000000       0.00000000       0.00000000       0.00000000       0.00000000       0.54879469
Se       0.00000000       0.00000000       3.70727273       0.00000000       0.00000000      -0.54879469
2
Properties=species:S:1:pos:R:3:forces:R:3 energy=-1.7500658047260318 pbc="F F F"
Se       0.00000000       0.00000000       0.00000000       0.00000000       0.00000000       0.44228756
Se       0.00000000       0.00000000       3.76606061       0.00000000       0.00000000      -0.44228756
2
Properties=species:S:1:pos:R:3:forces:R:3 energy=-1.7267734481508652 pbc="F F F"
Se       0.00000000       0.00000000       0.00000000       0.00000000       0.00000000       0.35299975
Se       0.00000000       0.00000000       3.82484848       0.00000000       0.00000000      -0.35299975
2
Properties=species:S:1:pos:R:3:forces:R:3 energy=-1.708233041374821 pbc="F F F"
Se       0.00000000       0.00000000       0.00000000       0.00000000       0.00000000       0.28044516
Se       0.00000000       0.00000000       3.88363636       0.00000000       0.00000000      -0.28044516
2
Properties=species:S:1:pos:R:3:forces:R:3 energy=-1.6934991755688766 pbc="F F F"
Se       0.00000000       0.00000000       0.00000000       0.00000000       0.00000000       0.22321057
Se       0.00000000       0.00000000       3.94242424       0.00000000       0.00000000      -0.22321057
2
Properties=species:S:1:pos:R:3:forces:R:3 energy=-1.681729030753192 pbc="F F F"
Se       0.00000000       0.00000000       0.00000000       0.00000000       0.00000000       0.17923863
Se       0.00000000       0.00000000       4.00121212       0.00000000       0.00000000      -0.17923863
2
Properties=species:S:1:pos:R:3:forces:R:3 energy=-1.672211555562521 pbc="F F F"
Se       0.00000000       0.00000000       0.00000000       0.00000000       0.00000000       0.14616880
Se       0.00000000       0.00000000       4.06000000       0.00000000       0.00000000      -0.14616880
2
Properties=species:S:1:pos:R:3:forces:R:3 energy=-1.6643759410251946 pbc="F F F"
Se       0.00000000       0.00000000       0.00000000       0.00000000       0.00000000       0.12164851
Se       0.00000000       0.00000000       4.11878788       0.00000000       0.00000000      -0.12164851
2
Properties=species:S:1:pos:R:3:forces:R:3 energy=-1.6577829297883202 pbc="F F F"
Se       0.00000000       0.00000000       0.00000000       0.00000000       0.00000000       0.10355670
Se       0.00000000       0.00000000       4.17757576       0.00000000       0.00000000      -0.10355670
2
Properties=species:S:1:pos:R:3:forces:R:3 energy=-1.6521079189089347 pbc="F F F"
Se       0.00000000       0.00000000       0.00000000       0.00000000       0.00000000       0.09016888
Se       0.00000000       0.00000000       4.23636364       0.00000000       0.00000000      -0.09016888
2
Properties=species:S:1:pos:R:3:forces:R:3 energy=-1.6471139251038132 pbc="F F F"
Se       0.00000000       0.00000000       0.00000000       0.00000000       0.00000000       0.08022308
Se       0.00000000       0.00000000       4.29515152       0.00000000       0.00000000      -0.08022308
2
Properties=species:S:1:pos:R:3:forces:R:3 energy=-1.6426241876196748 pbc="F F F"
Se       0.00000000       0.00000000       0.00000000       0.00000000       0.00000000       0.07292267
Se       0.00000000       0.00000000       4.35393939       0.00000000       0.00000000      -0.07292267
2
Properties=species:S:1:pos:R:3:forces:R:3 energy=-1.6384971774639348 pbc="F F F"
Se       0.00000000       0.00000000       0.00000000       0.00000000       0.00000000       0.06782407
Se       0.00000000       0.00000000       4.41272727       0.00000000       0.00000000      -0.06782407
2
Properties=species:S:1:pos:R:3:forces:R:3 energy=-1.634612071294402 pbc="F F F"
Se       0.00000000       0.00000000       0.00000000       0.00000000       0.00000000       0.06464095
Se       0.00000000       0.00000000       4.47151515       0.00000000       0.00000000      -0.06464095
2
Properties=species:S:1:pos:R:3:forces:R:3 energy=-1.6308664931943795 pbc="F F F"
Se       0.00000000       0.00000000       0.00000000       0.00000000       0.00000000       0.06299531
Se       0.00000000       0.00000000       4.53030303       0.00000000       0.00000000      -0.06299531
2
Properties=species:S:1:pos:R:3:forces:R:3 energy=-1.6271879825231286 pbc="F F F"
Se       0.00000000       0.00000000       0.00000000       0.00000000       0.00000000       0.06222521
Se       0.00000000       0.00000000       4.58909091       0.00000000       0.00000000      -0.06222521
2
Properties=species:S:1:pos:R:3:forces:R:3 energy=-1.6235528448227288 pbc="F F F"
Se       0.00000000       0.00000000       0.00000000       0.00000000       0.00000000       0.06133219
Se       0.00000000       0.00000000       4.64787879       0.00000000       0.00000000      -0.06133219
2
Properties=species:S:1:pos:R:3:forces:R:3 energy=-1.6200024922022556 pbc="F F F"
Se       0.00000000       0.00000000       0.00000000       0.00000000       0.00000000       0.05912406
Se       0.00000000       0.00000000       4.70666667       0.00000000       0.00000000      -0.05912406
2
Properties=species:S:1:pos:R:3:forces:R:3 energy=-1.6166478540814955 pbc="F F F"
Se       0.00000000       0.00000000       0.00000000       0.00000000       0.00000000       0.05455331
Se       0.00000000       0.00000000       4.76545455       0.00000000       0.00000000      -0.05455331
2
Properties=species:S:1:pos:R:3:forces:R:3 energy=-1.6136447721440068 pbc="F F F"
Se       0.00000000       0.00000000       0.00000000       0.00000000       0.00000000       0.04713010
Se       0.00000000       0.00000000       4.82424242       0.00000000       0.00000000      -0.04713010
2
Properties=species:S:1:pos:R:3:forces:R:3 energy=-1.6111542137367638 pbc="F F F"
Se       0.00000000       0.00000000       0.00000000       0.00000000       0.00000000       0.03731243
Se       0.00000000       0.00000000       4.88303030       0.00000000       0.00000000      -0.03731243
2
Properties=species:S:1:pos:R:3:forces:R:3 energy=-1.6092754120897865 pbc="F F F"
Se       0.00000000       0.00000000       0.00000000       0.00000000       0.00000000       0.02663791
Se       0.00000000       0.00000000       4.94181818       0.00000000       0.00000000      -0.02663791
2
Properties=species:S:1:pos:R:3:forces:R:3 energy=-1.607991929448327 pbc="F F F"
Se       0.00000000       0.00000000       0.00000000       0.00000000       0.00000000       0.01751130
Se       0.00000000       0.00000000       5.00060606       0.00000000       0.00000000      -0.01751130
2
Properties=species:S:1:pos:R:3:forces:R:3 energy=-1.607135606350223 pbc="F F F"
Se       0.00000000       0.00000000       0.00000000       0.00000000       0.00000000       0.01248150
Se       0.00000000       0.00000000       5.05939394       0.00000000       0.00000000      -0.01248150
2
Properties=species:S:1:pos:R:3:forces:R:3 energy=-1.6064112197338576 pbc="F F F"
Se       0.00000000       0.00000000       0.00000000       0.00000000       0.00000000       0.01314978
Se       0.00000000       0.00000000       5.11818182       0.00000000       0.00000000      -0.01314978
2
Properties=species:S:1:pos:R:3:forces:R:3 energy=-1.6054858514754982 pbc="F F F"
Se       0.00000000       0.00000000       0.00000000       0.00000000       0.00000000       0.01901475
Se       0.00000000       0.00000000       5.17696970       0.00000000       0.00000000      -0.01901475
2
Properties=species:S:1:pos:R:3:forces:R:3 energy=-1.6041332856849853 pbc="F F F"
Se       0.00000000       0.00000000       0.00000000       0.00000000       0.00000000       0.02698865
Se       0.00000000       0.00000000       5.23575758       0.00000000       0.00000000      -0.02698865
2
Properties=species:S:1:pos:R:3:forces:R:3 energy=-1.6023582263693554 pbc="F F F"
Se       0.00000000       0.00000000       0.00000000       0.00000000       0.00000000       0.03273468
Se       0.00000000       0.00000000       5.29454545       0.00000000       0.00000000      -0.03273468
2
Properties=species:S:1:pos:R:3:forces:R:3 energy=-1.6003578546048494 pbc="F F F"
Se       0.00000000       0.00000000       0.00000000       0.00000000       0.00000000       0.03504556
Se       0.00000000       0.00000000       5.35333333       0.00000000       0.00000000      -0.03504556
2
Properties=species:S:1:pos:R:3:forces:R:3 energy=-1.598172788092861 pbc="F F F"
Se       0.00000000       0.00000000       0.00000000       0.00000000       0.00000000       0.04078036
Se       0.00000000       0.00000000       5.41212121       0.00000000       0.00000000      -0.04078036
2
Properties=species:S:1:pos:R:3:forces:R:3 energy=-1.5953506903638264 pbc="F F F"
Se       0.00000000       0.00000000       0.00000000       0.00000000       0.00000000       0.05643211
Se       0.00000000       0.00000000       5.47090909       0.00000000       0.00000000      -0.05643211
2
Properties=species:S:1:pos:R:3:forces:R:3 energy=-1.5915961047692078 pbc="F F F"
Se       0.00000000       0.00000000       0.00000000       0.00000000       0.00000000       0.06913516
Se       0.00000000       0.00000000       5.52969697       0.00000000       0.00000000      -0.06913516
2
Properties=species:S:1:pos:R:3:forces:R:3 energy=-1.5875232813398734 pbc="F F F"
Se       0.00000000       0.00000000       0.00000000       0.00000000       0.00000000       0.06742097
Se       0.00000000       0.00000000       5.58848485       0.00000000       0.00000000      -0.06742097
2
Properties=species:S:1:pos:R:3:forces:R:3 energy=-1.5837638877302327 pbc="F F F"
Se       0.00000000       0.00000000       0.00000000       0.00000000       0.00000000       0.06096782
Se       0.00000000       0.00000000       5.64727273       0.00000000       0.00000000      -0.06096782
2
Properties=species:S:1:pos:R:3:forces:R:3 energy=-1.5802228054224583 pbc="F F F"
Se       0.00000000       0.00000000       0.00000000       0.00000000       0.00000000       0.06063025
Se       0.00000000       0.00000000       5.70606061       0.00000000       0.00000000      -0.06063025
2
Properties=species:S:1:pos:R:3:forces:R:3 energy=-1.5766329424313448 pbc="F F F"
Se       0.00000000       0.00000000       0.00000000       0.00000000       0.00000000       0.05952508
Se       0.00000000       0.00000000       5.76484848       0.00000000       0.00000000      -0.05952508
2
Properties=species:S:1:pos:R:3:forces:R:3 energy=-1.5735347693049244 pbc="F F F"
Se       0.00000000       0.00000000       0.00000000       0.00000000       0.00000000       0.04355448
Se       0.00000000       0.00000000       5.82363636       0.00000000       0.00000000      -0.04355448
2
Properties=species:S:1:pos:R:3:forces:R:3 energy=-1.5716246074821834 pbc="F F F"
Se       0.00000000       0.00000000       0.00000000       0.00000000       0.00000000       0.02227096
Se       0.00000000       0.00000000       5.88242424       0.00000000       0.00000000      -0.02227096
2
Properties=species:S:1:pos:R:3:forces:R:3 energy=-1.5707666302248406 pbc="F F F"
Se       0.00000000       0.00000000       0.00000000       0.00000000       0.00000000       0.00834913
Se       0.00000000       0.00000000       5.94121212       0.00000000       0.00000000      -0.00834913
2
Properties=species:S:1:pos:R:3:forces:R:3 energy=-1.5704623036518892 pbc="F F F"
Se       0.00000000       0.00000000       0.00000000       0.00000000       0.00000000       0.00354915
Se       0.00000000       0.00000000       6.00000000       0.00000000       0.00000000      -0.00354915
