2
Properties=species:S:1:pos:R:3:forces:R:3 energy=5439.327262882199 pbc="F F F"
Si       0.00000000       0.00000000       0.00000000       0.00000000       0.00000000 -111225.46093750
Si       0.00000000       0.00000000       0.10000000       0.00000000       0.00000000  111225.46093750
2
Properties=species:S:1:pos:R:3:forces:R:3 energy=1943.3233566321992 pbc="F F F"
Si       0.00000000       0.00000000       0.00000000       0.00000000       0.00000000  -28607.21289062
Si       0.00000000       0.00000000       0.15959596       0.00000000       0.00000000   28607.21289062
2
Properties=species:S:1:pos:R:3:forces:R:3 energy=902.5787277259491 pbc="F F F"
Si       0.00000000       0.00000000       0.00000000       0.00000000       0.00000000  -10127.03125000
Si       0.00000000       0.00000000       0.21919192       0.00000000       0.00000000   10127.03125000
2
Properties=species:S:1:pos:R:3:forces:R:3 energy=501.6893844673982 pbc="F F F"
Si       0.00000000       0.00000000       0.00000000       0.00000000       0.00000000   -4309.30664062
Si       0.00000000       0.00000000       0.27878788       0.00000000       0.00000000    4309.30664062
2
Properties=species:S:1:pos:R:3:forces:R:3 energy=321.1039047342379 pbc="F F F"
Si       0.00000000       0.00000000       0.00000000       0.00000000       0.00000000   -2072.73706055
Si       0.00000000       0.00000000       0.33838384       0.00000000       0.00000000    2072.73706055
2
Properties=species:S:1:pos:R:3:forces:R:3 energy=230.56945040120607 pbc="F F F"
Si       0.00000000       0.00000000       0.00000000       0.00000000       0.00000000   -1090.33837891
Si       0.00000000       0.00000000       0.39797980       0.00000000       0.00000000    1090.33837891
2
Properties=species:S:1:pos:R:3:forces:R:3 energy=181.17810826029486 pbc="F F F"
Si       0.00000000       0.00000000       0.00000000       0.00000000       0.00000000    -622.84289551
Si       0.00000000       0.00000000       0.45757576       0.00000000       0.00000000     622.84289551
2
Properties=species:S:1:pos:R:3:forces:R:3 energy=151.62073525776938 pbc="F F F"
Si       0.00000000       0.00000000       0.00000000       0.00000000       0.00000000    -397.11395264
Si       0.00000000       0.00000000       0.51717172       0.00000000       0.00000000     397.11395264
2
Properties=species:S:1:pos:R:3:forces:R:3 energy=131.36728685063682 pbc="F F F"
Si       0.00000000       0.00000000       0.00000000       0.00000000       0.00000000    -297.85229492
Si       0.00000000       0.00000000       0.57676768       0.00000000       0.00000000     297.85229492
2
Properties=species:S:1:pos:R:3:forces:R:3 energy=114.74276000614628 pbc="F F F"
Si       0.00000000       0.00000000       0.00000000       0.00000000       0.00000000    -268.53039551
Si       0.00000000       0.00000000       0.63636364       0.00000000       0.00000000     268.53039551
2
Properties=species:S:1:pos:R:3:forces:R:3 energy=98.80084280212459 pbc="F F F"
Si       0.00000000       0.00000000       0.00000000       0.00000000       0.00000000    -266.63122559
Si       0.00000000       0.00000000       0.69595960       0.00000000       0.00000000     266.63122559
2
Properties=species:S:1:pos:R:3:forces:R:3 energy=83.26575554296106 pbc="F F F"
Si       0.00000000       0.00000000       0.00000000       0.00000000       0.00000000    -251.26008606
Si       0.00000000       0.00000000       0.75555556       0.00000000       0.00000000     251.26008606
2
Properties=species:S:1:pos:R:3:forces:R:3 energy=69.16980114212178 pbc="F F F"
Si       0.00000000       0.00000000       0.00000000       0.00000000       0.00000000    -220.80596924
Si       0.00000000       0.00000000       0.81515152       0.00000000       0.00000000     220.80596924
2
Properties=species:S:1:pos:R:3:forces:R:3 energy=57.11606802603035 pbc="F F F"
Si       0.00000000       0.00000000       0.00000000       0.00000000       0.00000000    -180.52180481
Si       0.00000000       0.00000000       0.87474747       0.00000000       0.00000000     180.52180481
2
Properties=species:S:1:pos:R:3:forces:R:3 energy=47.743502807085434 pbc="F F F"
Si       0.00000000       0.00000000       0.00000000       0.00000000       0.00000000    -136.47042847
Si       0.00000000       0.00000000       0.93434343       0.00000000       0.00000000     136.47042847
2
Properties=species:S:1:pos:R:3:forces:R:3 energy=40.414089826915756 pbc="F F F"
Si       0.00000000       0.00000000       0.00000000       0.00000000       0.00000000    -113.99921417
Si       0.00000000       0.00000000       0.99393939       0.00000000       0.00000000     113.99921417
2
Properties=species:S:1:pos:R:3:forces:R:3 energy=33.753470078206995 pbc="F F F"
Si       0.00000000       0.00000000       0.00000000       0.00000000       0.00000000    -110.90303802
Si       0.00000000       0.00000000       1.05353535       0.00000000       0.00000000     110.90303802
2
Properties=species:S:1:pos:R:3:forces:R:3 energy=27.20467881340446 pbc="F F F"
Si       0.00000000       0.00000000       0.00000000       0.00000000       0.00000000    -107.75291443
Si       0.00000000       0.00000000       1.11313131       0.00000000       0.00000000     107.75291443
2
Properties=species:S:1:pos:R:3:forces:R:3 energy=21.099797041467177 pbc="F F F"
Si       0.00000000       0.00000000       0.00000000       0.00000000       0.00000000     -95.66810608
Si       0.00000000       0.00000000       1.17272727       0.00000000       0.00000000      95.66810608
2
Properties=species:S:1:pos:R:3:forces:R:3 energy=15.886902151139918 pbc="F F F"
Si       0.00000000       0.00000000       0.00000000       0.00000000       0.00000000     -79.05549622
Si       0.00000000       0.00000000       1.23232323       0.00000000       0.00000000      79.05549622
2
Properties=species:S:1:pos:R:3:forces:R:3 energy=11.71043980565651 pbc="F F F"
Si       0.00000000       0.00000000       0.00000000       0.00000000       0.00000000     -60.87218857
Si       0.00000000       0.00000000       1.29191919       0.00000000       0.00000000      60.87218857
2
Properties=species:S:1:pos:R:3:forces:R:3 energy=8.594545857545798 pbc="F F F"
Si       0.00000000       0.00000000       0.00000000       0.00000000       0.00000000     -44.60100174
Si       0.00000000       0.00000000       1.35151515       0.00000000       0.00000000      44.60100174
2
Properties=species:S:1:pos:R:3:forces:R:3 energy=6.256456675116172 pbc="F F F"
Si       0.00000000       0.00000000       0.00000000       0.00000000       0.00000000     -35.00396347
Si       0.00000000       0.00000000       1.41111111       0.00000000       0.00000000      35.00396347
2
Properties=species:S:1:pos:R:3:forces:R:3 energy=4.315441507359267 pbc="F F F"
Si       0.00000000       0.00000000       0.00000000       0.00000000       0.00000000     -30.74106979
Si       0.00000000       0.00000000       1.47070707       0.00000000       0.00000000      30.74106979
2
Properties=species:S:1:pos:R:3:forces:R:3 energy=2.553123652749679 pbc="F F F"
Si       0.00000000       0.00000000       0.00000000       0.00000000       0.00000000     -28.49733543
Si       0.00000000       0.00000000       1.53030303       0.00000000       0.00000000      28.49733543
2
Properties=species:S:1:pos:R:3:forces:R:3 energy=0.9245750642509131 pbc="F F F"
Si       0.00000000       0.00000000       0.00000000       0.00000000       0.00000000     -26.02467155
Si       0.00000000       0.00000000       1.58989899       0.00000000       0.00000000      26.02467155
2
Properties=species:S:1:pos:R:3:forces:R:3 energy=-0.5321726437230354 pbc="F F F"
Si       0.00000000       0.00000000       0.00000000       0.00000000       0.00000000     -22.74488640
Si       0.00000000       0.00000000       1.64949495       0.00000000       0.00000000      22.74488640
2
Properties=species:S:1:pos:R:3:forces:R:3 energy=-1.7771032815125336 pbc="F F F"
Si       0.00000000       0.00000000       0.00000000       0.00000000       0.00000000     -18.99477577
Si       0.00000000       0.00000000       1.70909091       0.00000000       0.00000000      18.99477577
2
Properties=species:S:1:pos:R:3:forces:R:3 energy=-2.795148738393448 pbc="F F F"
Si       0.00000000       0.00000000       0.00000000       0.00000000       0.00000000     -15.18560219
Si       0.00000000       0.00000000       1.76868687       0.00000000       0.00000000      15.18560219
2
Properties=species:S:1:pos:R:3:forces:R:3 energy=-3.590984785000338 pbc="F F F"
Si       0.00000000       0.00000000       0.00000000       0.00000000       0.00000000     -11.56913567
Si       0.00000000       0.00000000       1.82828283       0.00000000       0.00000000      11.56913567
2
Properties=species:S:1:pos:R:3:forces:R:3 energy=-4.181121826068495 pbc="F F F"
Si       0.00000000       0.00000000       0.00000000       0.00000000       0.00000000      -8.30510616
Si       0.00000000       0.00000000       1.88787879       0.00000000       0.00000000       8.30510616
2
Properties=species:S:1:pos:R:3:forces:R:3 energy=-4.590223849453191 pbc="F F F"
Si       0.00000000       0.00000000       0.00000000       0.00000000       0.00000000      -5.50921869
Si       0.00000000       0.00000000       1.94747475       0.00000000       0.00000000       5.50921869
2
Properties=species:S:1:pos:R:3:forces:R:3 energy=-4.8483394244164835 pbc="F F F"
Si       0.00000000       0.00000000       0.00000000       0.00000000       0.00000000      -3.24283504
Si       0.00000000       0.00000000       2.00707071       0.00000000       0.00000000       3.24283504
2
Properties=species:S:1:pos:R:3:forces:R:3 energy=-4.987177052892657 pbc="F F F"
Si       0.00000000       0.00000000       0.00000000       0.00000000       0.00000000      -1.49957979
Si       0.00000000       0.00000000       2.06666667       0.00000000       0.00000000       1.49957979
2
Properties=species:S:1:pos:R:3:forces:R:3 energy=-5.036193947544109 pbc="F F F"
Si       0.00000000       0.00000000       0.00000000       0.00000000       0.00000000      -0.21405041
Si       0.00000000       0.00000000       2.12626263       0.00000000       0.00000000       0.21405041
2
Properties=species:S:1:pos:R:3:forces:R:3 energy=-5.019811171212899 pbc="F F F"
Si       0.00000000       0.00000000       0.00000000       0.00000000       0.00000000       0.71311486
Si       0.00000000       0.00000000       2.18585859       0.00000000       0.00000000      -0.71311486
2
Properties=species:S:1:pos:R:3:forces:R:3 energy=-4.956240181856101 pbc="F F F"
Si       0.00000000       0.00000000       0.00000000       0.00000000       0.00000000       1.38572192
Si       0.00000000       0.00000000       2.24545455       0.00000000       0.00000000      -1.38572192
2
Properties=species:S:1:pos:R:3:forces:R:3 energy=-4.85804494269593 pbc="F F F"
Si       0.00000000       0.00000000       0.00000000       0.00000000       0.00000000       1.88575017
Si       0.00000000       0.00000000       2.30505051       0.00000000       0.00000000      -1.88575017
2
Properties=species:S:1:pos:R:3:forces:R:3 energy=-4.733970149066504 pbc="F F F"
Si       0.00000000       0.00000000       0.00000000       0.00000000       0.00000000       2.25894713
Si       0.00000000       0.00000000       2.36464646       0.00000000       0.00000000      -2.25894713
2
Properties=species:S:1:pos:R:3:forces:R:3 energy=-4.5910031226513714 pbc="F F F"
Si       0.00000000       0.00000000       0.00000000       0.00000000       0.00000000       2.52070236
Si       0.00000000       0.00000000       2.42424242       0.00000000       0.00000000      -2.52070236
2
Properties=species:S:1:pos:R:3:forces:R:3 energy=-4.435667555425658 pbc="F F F"
Si       0.00000000       0.00000000       0.00000000       0.00000000       0.00000000       2.67477942
Si       0.00000000       0.00000000       2.48383838       0.00000000       0.00000000      -2.67477942
2
Properties=species:S:1:pos:R:3:forces:R:3 energy=-4.274155144967772 pbc="F F F"
Si       0.00000000       0.00000000       0.00000000       0.00000000       0.00000000       2.73048782
Si       0.00000000       0.00000000       2.54343434       0.00000000       0.00000000      -2.73048782
2
Properties=species:S:1:pos:R:3:forces:R:3 energy=-4.111767911006439 pbc="F F F"
Si       0.00000000       0.00000000       0.00000000       0.00000000       0.00000000       2.70840836
Si       0.00000000       0.00000000       2.60303030       0.00000000       0.00000000      -2.70840836
2
Properties=species:S:1:pos:R:3:forces:R:3 energy=-3.952327260653602 pbc="F F F"
Si       0.00000000       0.00000000       0.00000000       0.00000000       0.00000000       2.63631177
Si       0.00000000       0.00000000       2.66262626       0.00000000       0.00000000      -2.63631177
2
Properties=species:S:1:pos:R:3:forces:R:3 energy=-3.7979589929135025 pbc="F F F"
Si       0.00000000       0.00000000       0.00000000       0.00000000       0.00000000       2.54289317
Si       0.00000000       0.00000000       2.72222222       0.00000000       0.00000000      -2.54289317
2
Properties=species:S:1:pos:R:3:forces:R:3 energy=-3.649172358882343 pbc="F F F"
Si       0.00000000       0.00000000       0.00000000       0.00000000       0.00000000       2.45229411
Si       0.00000000       0.00000000       2.78181818       0.00000000       0.00000000      -2.45229411
2
Properties=species:S:1:pos:R:3:forces:R:3 energy=-3.5053642611050795 pbc="F F F"
Si       0.00000000       0.00000000       0.00000000       0.00000000       0.00000000       2.37627172
Si       0.00000000       0.00000000       2.84141414       0.00000000       0.00000000      -2.37627172
2
Properties=species:S:1:pos:R:3:forces:R:3 energy=-3.3657326779052337 pbc="F F F"
Si       0.00000000       0.00000000       0.00000000       0.00000000       0.00000000       2.31039095
Si       0.00000000       0.00000000       2.90101010       0.00000000       0.00000000      -2.31039095
2
Properties=species:S:1:pos:R:3:forces:R:3 energy=-3.2300522606478568 pbc="F F F"
Si       0.00000000       0.00000000       0.00000000       0.00000000       0.00000000       2.24112058
Si       0.00000000       0.00000000       2.96060606       0.00000000       0.00000000      -2.24112058
2
Properties=species:S:1:pos:R:3:forces:R:3 energy=-3.098955178078605 pbc="F F F"
Si       0.00000000       0.00000000       0.00000000       0.00000000       0.00000000       2.15458536
Si       0.00000000       0.00000000       3.02020202       0.00000000       0.00000000      -2.15458536
2
Properties=species:S:1:pos:R:3:forces:R:3 energy=-2.973770246130056 pbc="F F F"
Si       0.00000000       0.00000000       0.00000000       0.00000000       0.00000000       2.04176426
Si       0.00000000       0.00000000       3.07979798       0.00000000       0.00000000      -2.04176426
2
Properties=species:S:1:pos:R:3:forces:R:3 energy=-2.85615293133524 pbc="F F F"
Si       0.00000000       0.00000000       0.00000000       0.00000000       0.00000000       1.90097177
Si       0.00000000       0.00000000       3.13939394       0.00000000       0.00000000      -1.90097177
2
Properties=species:S:1:pos:R:3:forces:R:3 energy=-2.7476385067332245 pbc="F F F"
Si       0.00000000       0.00000000       0.00000000       0.00000000       0.00000000       1.73774838
Si       0.00000000       0.00000000       3.19898990       0.00000000       0.00000000      -1.73774838
2
Properties=species:S:1:pos:R:3:forces:R:3 energy=-2.649266055499821 pbc="F F F"
Si       0.00000000       0.00000000       0.00000000       0.00000000       0.00000000       1.56256449
Si       0.00000000       0.00000000       3.25858586       0.00000000       0.00000000      -1.56256449
2
Properties=species:S:1:pos:R:3:forces:R:3 energy=-2.561389086953347 pbc="F F F"
Si       0.00000000       0.00000000       0.00000000       0.00000000       0.00000000       1.38757169
Si       0.00000000       0.00000000       3.31818182       0.00000000       0.00000000      -1.38757169
2
Properties=species:S:1:pos:R:3:forces:R:3 energy=-2.483658574854048 pbc="F F F"
Si       0.00000000       0.00000000       0.00000000       0.00000000       0.00000000       1.22359860
Si       0.00000000       0.00000000       3.37777778       0.00000000       0.00000000      -1.22359860
2
Properties=species:S:1:pos:R:3:forces:R:3 energy=-2.415173075930108 pbc="F F F"
Si       0.00000000       0.00000000       0.00000000       0.00000000       0.00000000       1.07825100
Si       0.00000000       0.00000000       3.43737374       0.00000000       0.00000000      -1.07825100
2
Properties=species:S:1:pos:R:3:forces:R:3 energy=-2.3546920113119456 pbc="F F F"
Si       0.00000000       0.00000000       0.00000000       0.00000000       0.00000000       0.95529187
Si       0.00000000       0.00000000       3.49696970       0.00000000       0.00000000      -0.95529187
2
Properties=species:S:1:pos:R:3:forces:R:3 energy=-2.3008560958520827 pbc="F F F"
Si       0.00000000       0.00000000       0.00000000       0.00000000       0.00000000       0.85506326
Si       0.00000000       0.00000000       3.55656566       0.00000000       0.00000000      -0.85506326
2
Properties=species:S:1:pos:R:3:forces:R:3 energy=-2.2523646343529604 pbc="F F F"
Si       0.00000000       0.00000000       0.00000000       0.00000000       0.00000000       0.77544558
Si       0.00000000       0.00000000       3.61616162       0.00000000       0.00000000      -0.77544558
2
Properties=species:S:1:pos:R:3:forces:R:3 energy=-2.2080909786837517 pbc="F F F"
Si       0.00000000       0.00000000       0.00000000       0.00000000       0.00000000       0.71288335
Si       0.00000000       0.00000000       3.67575758       0.00000000       0.00000000      -0.71288335
2
Properties=species:S:1:pos:R:3:forces:R:3 energy=-2.1671379581001298 pbc="F F F"
Si       0.00000000       0.00000000       0.00000000       0.00000000       0.00000000       0.66327626
Si       0.00000000       0.00000000       3.73535354       0.00000000       0.00000000      -0.66327626
2
Properties=species:S:1:pos:R:3:forces:R:3 energy=-2.1288559737137036 pbc="F F F"
Si       0.00000000       0.00000000       0.00000000       0.00000000       0.00000000       0.62261754
Si       0.00000000       0.00000000       3.79494949       0.00000000       0.00000000      -0.62261754
2
Properties=species:S:1:pos:R:3:forces:R:3 energy=-2.0928190322571263 pbc="F F F"
Si       0.00000000       0.00000000       0.00000000       0.00000000       0.00000000       0.58739668
Si       0.00000000       0.00000000       3.85454545       0.00000000       0.00000000      -0.58739668
2
Properties=species:S:1:pos:R:3:forces:R:3 energy=-2.058791453846138 pbc="F F F"
Si       0.00000000       0.00000000       0.00000000       0.00000000       0.00000000       0.55481815
Si       0.00000000       0.00000000       3.91414141       0.00000000       0.00000000      -0.55481815
2
Properties=species:S:1:pos:R:3:forces:R:3 energy=-2.026677809245643 pbc="F F F"
Si       0.00000000       0.00000000       0.00000000       0.00000000       0.00000000       0.52284276
Si       0.00000000       0.00000000       3.97373737       0.00000000       0.00000000      -0.52284276
2
Properties=species:S:1:pos:R:3:forces:R:3 energy=-1.9964866822455598 pbc="F F F"
Si       0.00000000       0.00000000       0.00000000       0.00000000       0.00000000       0.49016687
Si       0.00000000       0.00000000       4.03333333       0.00000000       0.00000000      -0.49016687
2
Properties=species:S:1:pos:R:3:forces:R:3 energy=-1.9682810805962385 pbc="F F F"
Si       0.00000000       0.00000000       0.00000000       0.00000000       0.00000000       0.45613921
Si       0.00000000       0.00000000       4.09292929       0.00000000       0.00000000      -0.45613921
2
Properties=species:S:1:pos:R:3:forces:R:3 energy=-1.9421462788425963 pbc="F F F"
Si       0.00000000       0.00000000       0.00000000       0.00000000       0.00000000       0.42071953
Si       0.00000000       0.00000000       4.15252525       0.00000000       0.00000000      -0.42071953
2
Properties=species:S:1:pos:R:3:forces:R:3 energy=-1.9181525953474285 pbc="F F F"
Si       0.00000000       0.00000000       0.00000000       0.00000000       0.00000000       0.38443774
Si       0.00000000       0.00000000       4.21212121       0.00000000       0.00000000      -0.38443774
2
Properties=species:S:1:pos:R:3:forces:R:3 energy=-1.8963214881678911 pbc="F F F"
Si       0.00000000       0.00000000       0.00000000       0.00000000       0.00000000       0.34832877
Si       0.00000000       0.00000000       4.27171717       0.00000000       0.00000000      -0.34832877
2
Properties=species:S:1:pos:R:3:forces:R:3 energy=-1.8766031932262683 pbc="F F F"
Si       0.00000000       0.00000000       0.00000000       0.00000000       0.00000000       0.31380054
Si       0.00000000       0.00000000       4.33131313       0.00000000       0.00000000      -0.31380054
2
Properties=species:S:1:pos:R:3:forces:R:3 energy=-1.8588569759976006 pbc="F F F"
Si       0.00000000       0.00000000       0.00000000       0.00000000       0.00000000       0.28238833
Si       0.00000000       0.00000000       4.39090909       0.00000000       0.00000000      -0.28238833
2
Properties=species:S:1:pos:R:3:forces:R:3 energy=-1.8428550432414859 pbc="F F F"
Si       0.00000000       0.00000000       0.00000000       0.00000000       0.00000000       0.25545797
Si       0.00000000       0.00000000       4.45050505       0.00000000       0.00000000      -0.25545797
2
Properties=species:S:1:pos:R:3:forces:R:3 energy=-1.8283014133318312 pbc="F F F"
Si       0.00000000       0.00000000       0.00000000       0.00000000       0.00000000       0.23389558
Si       0.00000000       0.00000000       4.51010101       0.00000000       0.00000000      -0.23389558
2
Properties=species:S:1:pos:R:3:forces:R:3 energy=-1.8148660723021546 pbc="F F F"
Si       0.00000000       0.00000000       0.00000000       0.00000000       0.00000000       0.21787208
Si       0.00000000       0.00000000       4.56969697       0.00000000       0.00000000      -0.21787208
2
Properties=species:S:1:pos:R:3:forces:R:3 energy=-1.8022349811426164 pbc="F F F"
Si       0.00000000       0.00000000       0.00000000       0.00000000       0.00000000       0.20673409
Si       0.00000000       0.00000000       4.62929293       0.00000000       0.00000000      -0.20673409
2
Properties=species:S:1:pos:R:3:forces:R:3 energy=-1.7901556917762307 pbc="F F F"
Si       0.00000000       0.00000000       0.00000000       0.00000000       0.00000000       0.19908389
Si       0.00000000       0.00000000       4.68888889       0.00000000       0.00000000      -0.19908389
2
Properties=species:S:1:pos:R:3:forces:R:3 energy=-1.7784737898394631 pbc="F F F"
Si       0.00000000       0.00000000       0.00000000       0.00000000       0.00000000       0.19304006
Si       0.00000000       0.00000000       4.74848485       0.00000000       0.00000000      -0.19304006
2
Properties=species:S:1:pos:R:3:forces:R:3 energy=-1.7671531159119467 pbc="F F F"
Si       0.00000000       0.00000000       0.00000000       0.00000000       0.00000000       0.18669058
Si       0.00000000       0.00000000       4.80808081       0.00000000       0.00000000      -0.18669058
2
Properties=species:S:1:pos:R:3:forces:R:3 energy=-1.7562572492308157 pbc="F F F"
Si       0.00000000       0.00000000       0.00000000       0.00000000       0.00000000       0.17859216
Si       0.00000000       0.00000000       4.86767677       0.00000000       0.00000000      -0.17859216
2
Properties=species:S:1:pos:R:3:forces:R:3 energy=-1.7459121587531228 pbc="F F F"
Si       0.00000000       0.00000000       0.00000000       0.00000000       0.00000000       0.16820988
Si       0.00000000       0.00000000       4.92727273       0.00000000       0.00000000      -0.16820988
2
Properties=species:S:1:pos:R:3:forces:R:3 energy=-1.7362437133134887 pbc="F F F"
Si       0.00000000       0.00000000       0.00000000       0.00000000       0.00000000       0.15605433
Si       0.00000000       0.00000000       4.98686869       0.00000000       0.00000000      -0.15605433
2
Properties=species:S:1:pos:R:3:forces:R:3 energy=-1.7273217435409447 pbc="F F F"
Si       0.00000000       0.00000000       0.00000000       0.00000000       0.00000000       0.14344706
Si       0.00000000       0.00000000       5.04646465       0.00000000       0.00000000      -0.14344706
2
Properties=species:S:1:pos:R:3:forces:R:3 energy=-1.7191252422498506 pbc="F F F"
Si       0.00000000       0.00000000       0.00000000       0.00000000       0.00000000       0.13189730
Si       0.00000000       0.00000000       5.10606061       0.00000000       0.00000000      -0.13189730
2
Properties=species:S:1:pos:R:3:forces:R:3 energy=-1.7115596628341647 pbc="F F F"
Si       0.00000000       0.00000000       0.00000000       0.00000000       0.00000000       0.12230489
Si       0.00000000       0.00000000       5.16565657       0.00000000       0.00000000      -0.12230489
2
Properties=species:S:1:pos:R:3:forces:R:3 energy=-1.7045140387321147 pbc="F F F"
Si       0.00000000       0.00000000       0.00000000       0.00000000       0.00000000       0.11431756
Si       0.00000000       0.00000000       5.22525253       0.00000000       0.00000000      -0.11431756
2
Properties=species:S:1:pos:R:3:forces:R:3 energy=-1.697934934367409 pbc="F F F"
Si       0.00000000       0.00000000       0.00000000       0.00000000       0.00000000       0.10630950
Si       0.00000000       0.00000000       5.28484848       0.00000000       0.00000000      -0.10630950
2
Properties=species:S:1:pos:R:3:forces:R:3 energy=-1.6918763467002218 pbc="F F F"
Si       0.00000000       0.00000000       0.00000000       0.00000000       0.00000000       0.09671150
Si       0.00000000       0.00000000       5.34444444       0.00000000       0.00000000      -0.09671150
2
Properties=species:S:1:pos:R:3:forces:R:3 energy=-1.6864164016924628 pbc="F F F"
Si       0.00000000       0.00000000       0.00000000       0.00000000       0.00000000       0.08677657
Si       0.00000000       0.00000000       5.40404040       0.00000000       0.00000000      -0.08677657
2
Properties=species:S:1:pos:R:3:forces:R:3 energy=-1.681464267728883 pbc="F F F"
Si       0.00000000       0.00000000       0.00000000       0.00000000       0.00000000       0.08000265
Si       0.00000000       0.00000000       5.46363636       0.00000000       0.00000000      -0.08000265
2
Properties=species:S:1:pos:R:3:forces:R:3 energy=-1.6768643762143627 pbc="F F F"
Si       0.00000000       0.00000000       0.00000000       0.00000000       0.00000000       0.07396211
Si       0.00000000       0.00000000       5.52323232       0.00000000       0.00000000      -0.07396211
2
Properties=species:S:1:pos:R:3:forces:R:3 energy=-1.6727469230197243 pbc="F F F"
Si       0.00000000       0.00000000       0.00000000       0.00000000       0.00000000       0.06349182
Si       0.00000000       0.00000000       5.58282828       0.00000000       0.00000000      -0.06349182
2
Properties=species:S:1:pos:R:3:forces:R:3 energy=-1.6693081681369557 pbc="F F F"
Si       0.00000000       0.00000000       0.00000000       0.00000000       0.00000000       0.05256601
Si       0.00000000       0.00000000       5.64242424       0.00000000       0.00000000      -0.05256601
2
Properties=species:S:1:pos:R:3:forces:R:3 energy=-1.6663348191243033 pbc="F F F"
Si       0.00000000       0.00000000       0.00000000       0.00000000       0.00000000       0.04861294
Si       0.00000000       0.00000000       5.70202020       0.00000000       0.00000000      -0.04861294
2
Properties=species:S:1:pos:R:3:forces:R:3 energy=-1.663409205340743 pbc="F F F"
Si       0.00000000       0.00000000       0.00000000       0.00000000       0.00000000       0.04950867
Si       0.00000000       0.00000000       5.76161616       0.00000000       0.00000000      -0.04950867
2
Properties=species:S:1:pos:R:3:forces:R:3 energy=-1.6605906643858312 pbc="F F F"
Si       0.00000000       0.00000000       0.00000000       0.00000000       0.00000000       0.04301642
Si       0.00000000       0.00000000       5.82121212       0.00000000       0.00000000      -0.04301642
2
Properties=species:S:1:pos:R:3:forces:R:3 energy=-1.6584862644906524 pbc="F F F"
Si       0.00000000       0.00000000       0.00000000       0.00000000       0.00000000       0.02695676
Si       0.00000000       0.00000000       5.88080808       0.00000000       0.00000000      -0.02695676
2
Properties=species:S:1:pos:R:3:forces:R:3 energy=-1.6573593368597135 pbc="F F F"
Si       0.00000000       0.00000000       0.00000000       0.00000000       0.00000000       0.01154037
Si       0.00000000       0.00000000       5.94040404       0.00000000       0.00000000      -0.01154037
2
Properties=species:S:1:pos:R:3:forces:R:3 energy=-1.6569188597827966 pbc="F F F"
Si       0.00000000       0.00000000       0.00000000       0.00000000       0.00000000       0.00526128
Si       0.00000000       0.00000000       6.00000000       0.00000000       0.00000000      -0.00526128
