2
Properties=species:S:1:pos:R:3:forces:R:3 energy=8806.042792913444 pbc="F F F"
Sn       0.00000000       0.00000000       0.00000000       0.00000000       0.00000000 -144433.81250000
Sn       0.00000000       0.00000000       0.18000000       0.00000000       0.00000000  144433.81250000
2
Properties=species:S:1:pos:R:3:forces:R:3 energy=3676.438056585319 pbc="F F F"
Sn       0.00000000       0.00000000       0.00000000       0.00000000       0.00000000  -49672.91406250
Sn       0.00000000       0.00000000       0.23878788       0.00000000       0.00000000   49672.91406250
2
Properties=species:S:1:pos:R:3:forces:R:3 energy=1773.2914501463422 pbc="F F F"
Sn       0.00000000       0.00000000       0.00000000       0.00000000       0.00000000  -20137.45312500
Sn       0.00000000       0.00000000       0.29757576       0.00000000       0.00000000   20137.45312500
2
Properties=species:S:1:pos:R:3:forces:R:3 energy=964.0235668455608 pbc="F F F"
Sn       0.00000000       0.00000000       0.00000000       0.00000000       0.00000000   -9049.02929688
Sn       0.00000000       0.00000000       0.35636364       0.00000000       0.00000000    9049.02929688
2
Properties=species:S:1:pos:R:3:forces:R:3 energy=587.9073559143965 pbc="F F F"
Sn       0.00000000       0.00000000       0.00000000       0.00000000       0.00000000   -4377.23486328
Sn       0.00000000       0.00000000       0.41515152       0.00000000       0.00000000    4377.23486328
2
Properties=species:S:1:pos:R:3:forces:R:3 energy=400.6941296055406 pbc="F F F"
Sn       0.00000000       0.00000000       0.00000000       0.00000000       0.00000000   -2258.20971680
Sn       0.00000000       0.00000000       0.47393939       0.00000000       0.00000000    2258.20971680
2
Properties=species:S:1:pos:R:3:forces:R:3 energy=301.07404295779344 pbc="F F F"
Sn       0.00000000       0.00000000       0.00000000       0.00000000       0.00000000   -1252.31250000
Sn       0.00000000       0.00000000       0.53272727       0.00000000       0.00000000    1252.31250000
2
Properties=species:S:1:pos:R:3:forces:R:3 energy=243.4243390131473 pbc="F F F"
Sn       0.00000000       0.00000000       0.00000000       0.00000000       0.00000000    -768.14306641
Sn       0.00000000       0.00000000       0.59151515       0.00000000       0.00000000     768.14306641
2
Properties=species:S:1:pos:R:3:forces:R:3 energy=205.7195050857931 pbc="F F F"
Sn       0.00000000       0.00000000       0.00000000       0.00000000       0.00000000    -545.29388428
Sn       0.00000000       0.00000000       0.65030303       0.00000000       0.00000000     545.29388428
2
Properties=species:S:1:pos:R:3:forces:R:3 energy=176.66301714371838 pbc="F F F"
Sn       0.00000000       0.00000000       0.00000000       0.00000000       0.00000000    -459.15670776
Sn       0.00000000       0.00000000       0.70909091       0.00000000       0.00000000     459.15670776
2
Properties=species:S:1:pos:R:3:forces:R:3 energy=150.48828888638005 pbc="F F F"
Sn       0.00000000       0.00000000       0.00000000       0.00000000       0.00000000    -436.92285156
Sn       0.00000000       0.00000000       0.76787879       0.00000000       0.00000000     436.92285156
2
Properties=species:S:1:pos:R:3:forces:R:3 energy=125.16623709033537 pbc="F F F"
Sn       0.00000000       0.00000000       0.00000000       0.00000000       0.00000000    -421.97348022
Sn       0.00000000       0.00000000       0.82666667       0.00000000       0.00000000     421.97348022
2
Properties=species:S:1:pos:R:3:forces:R:3 energy=101.25202229388438 pbc="F F F"
Sn       0.00000000       0.00000000       0.00000000       0.00000000       0.00000000    -389.67858887
Sn       0.00000000       0.00000000       0.88545455       0.00000000       0.00000000     389.67858887
2
Properties=species:S:1:pos:R:3:forces:R:3 energy=79.49800964734565 pbc="F F F"
Sn       0.00000000       0.00000000       0.00000000       0.00000000       0.00000000    -347.63549805
Sn       0.00000000       0.00000000       0.94424242       0.00000000       0.00000000     347.63549805
2
Properties=species:S:1:pos:R:3:forces:R:3 energy=60.99974589847385 pbc="F F F"
Sn       0.00000000       0.00000000       0.00000000       0.00000000       0.00000000    -275.73635864
Sn       0.00000000       0.00000000       1.00303030       0.00000000       0.00000000     275.73635864
2
Properties=species:S:1:pos:R:3:forces:R:3 energy=47.15139613701664 pbc="F F F"
Sn       0.00000000       0.00000000       0.00000000       0.00000000       0.00000000    -200.56245422
Sn       0.00000000       0.00000000       1.06181818       0.00000000       0.00000000     200.56245422
2
Properties=species:S:1:pos:R:3:forces:R:3 energy=37.27729360774497 pbc="F F F"
Sn       0.00000000       0.00000000       0.00000000       0.00000000       0.00000000    -134.42340088
Sn       0.00000000       0.00000000       1.12060606       0.00000000       0.00000000     134.42340088
2
Properties=species:S:1:pos:R:3:forces:R:3 energy=31.245920960569144 pbc="F F F"
Sn       0.00000000       0.00000000       0.00000000       0.00000000       0.00000000     -73.46906281
Sn       0.00000000       0.00000000       1.17939394       0.00000000       0.00000000      73.46906281
2
Properties=species:S:1:pos:R:3:forces:R:3 energy=27.918251626503356 pbc="F F F"
Sn       0.00000000       0.00000000       0.00000000       0.00000000       0.00000000     -48.09352875
Sn       0.00000000       0.00000000       1.23818182       0.00000000       0.00000000      48.09352875
2
Properties=species:S:1:pos:R:3:forces:R:3 energy=25.01912014272095 pbc="F F F"
Sn       0.00000000       0.00000000       0.00000000       0.00000000       0.00000000     -49.62131500
Sn       0.00000000       0.00000000       1.29696970       0.00000000       0.00000000      49.62131500
2
Properties=species:S:1:pos:R:3:forces:R:3 energy=22.498103942135202 pbc="F F F"
Sn       0.00000000       0.00000000       0.00000000       0.00000000       0.00000000     -34.65149307
Sn       0.00000000       0.00000000       1.35575758       0.00000000       0.00000000      34.65149307
2
Properties=species:S:1:pos:R:3:forces:R:3 energy=20.593898286608855 pbc="F F F"
Sn       0.00000000       0.00000000       0.00000000       0.00000000       0.00000000     -35.05874634
Sn       0.00000000       0.00000000       1.41454545       0.00000000       0.00000000      35.05874634
2
Properties=species:S:1:pos:R:3:forces:R:3 energy=18.088352232500245 pbc="F F F"
Sn       0.00000000       0.00000000       0.00000000       0.00000000       0.00000000     -49.34771347
Sn       0.00000000       0.00000000       1.47333333       0.00000000       0.00000000      49.34771347
2
Properties=species:S:1:pos:R:3:forces:R:3 energy=15.044768925639257 pbc="F F F"
Sn       0.00000000       0.00000000       0.00000000       0.00000000       0.00000000     -52.28530884
Sn       0.00000000       0.00000000       1.53212121       0.00000000       0.00000000      52.28530884
2
Properties=species:S:1:pos:R:3:forces:R:3 energy=12.072483501773926 pbc="F F F"
Sn       0.00000000       0.00000000       0.00000000       0.00000000       0.00000000     -48.17748642
Sn       0.00000000       0.00000000       1.59090909       0.00000000       0.00000000      48.17748642
2
Properties=species:S:1:pos:R:3:forces:R:3 energy=9.437132617240136 pbc="F F F"
Sn       0.00000000       0.00000000       0.00000000       0.00000000       0.00000000     -41.18061066
Sn       0.00000000       0.00000000       1.64969697       0.00000000       0.00000000      41.18061066
2
Properties=species:S:1:pos:R:3:forces:R:3 energy=7.2381685600405605 pbc="F F F"
Sn       0.00000000       0.00000000       0.00000000       0.00000000       0.00000000     -33.77506256
Sn       0.00000000       0.00000000       1.70848485       0.00000000       0.00000000      33.77506256
2
Properties=species:S:1:pos:R:3:forces:R:3 energy=5.435521965508982 pbc="F F F"
Sn       0.00000000       0.00000000       0.00000000       0.00000000       0.00000000     -27.85696411
Sn       0.00000000       0.00000000       1.76727273       0.00000000       0.00000000      27.85696411
2
Properties=species:S:1:pos:R:3:forces:R:3 energy=3.929675811334791 pbc="F F F"
Sn       0.00000000       0.00000000       0.00000000       0.00000000       0.00000000     -23.61213112
Sn       0.00000000       0.00000000       1.82606061       0.00000000       0.00000000      23.61213112
2
Properties=species:S:1:pos:R:3:forces:R:3 energy=2.637021786980868 pbc="F F F"
Sn       0.00000000       0.00000000       0.00000000       0.00000000       0.00000000     -20.50860023
Sn       0.00000000       0.00000000       1.88484848       0.00000000       0.00000000      20.50860023
2
Properties=species:S:1:pos:R:3:forces:R:3 energy=1.5057425611696689 pbc="F F F"
Sn       0.00000000       0.00000000       0.00000000       0.00000000       0.00000000     -18.05534935
Sn       0.00000000       0.00000000       1.94363636       0.00000000       0.00000000      18.05534935
2
Properties=species:S:1:pos:R:3:forces:R:3 energy=0.5076728286596879 pbc="F F F"
Sn       0.00000000       0.00000000       0.00000000       0.00000000       0.00000000     -15.93693924
Sn       0.00000000       0.00000000       2.00242424       0.00000000       0.00000000      15.93693924
2
Properties=species:S:1:pos:R:3:forces:R:3 energy=-0.37101890845162 pbc="F F F"
Sn       0.00000000       0.00000000       0.00000000       0.00000000       0.00000000     -13.97282028
Sn       0.00000000       0.00000000       2.06121212       0.00000000       0.00000000      13.97282028
2
Properties=species:S:1:pos:R:3:forces:R:3 energy=-1.1364752364218418 pbc="F F F"
Sn       0.00000000       0.00000000       0.00000000       0.00000000       0.00000000     -12.07671928
Sn       0.00000000       0.00000000       2.12000000       0.00000000       0.00000000      12.07671928
2
Properties=species:S:1:pos:R:3:forces:R:3 energy=-1.7918704048561729 pbc="F F F"
Sn       0.00000000       0.00000000       0.00000000       0.00000000       0.00000000     -10.22924995
Sn       0.00000000       0.00000000       2.17878788       0.00000000       0.00000000      10.22924995
2
Properties=species:S:1:pos:R:3:forces:R:3 energy=-2.340631072607346 pbc="F F F"
Sn       0.00000000       0.00000000       0.00000000       0.00000000       0.00000000      -8.45592785
Sn       0.00000000       0.00000000       2.23757576       0.00000000       0.00000000       8.45592785
2
Properties=species:S:1:pos:R:3:forces:R:3 energy=-2.7884181190328543 pbc="F F F"
Sn       0.00000000       0.00000000       0.00000000       0.00000000       0.00000000      -6.80163193
Sn       0.00000000       0.00000000       2.29636364       0.00000000       0.00000000       6.80163193
2
Properties=species:S:1:pos:R:3:forces:R:3 energy=-3.1434497823650585 pbc="F F F"
Sn       0.00000000       0.00000000       0.00000000       0.00000000       0.00000000      -5.30551386
Sn       0.00000000       0.00000000       2.35515152       0.00000000       0.00000000       5.30551386
2
Properties=species:S:1:pos:R:3:forces:R:3 energy=-3.415718295455812 pbc="F F F"
Sn       0.00000000       0.00000000       0.00000000       0.00000000       0.00000000      -3.98730040
Sn       0.00000000       0.00000000       2.41393939       0.00000000       0.00000000       3.98730040
2
Properties=species:S:1:pos:R:3:forces:R:3 energy=-3.615772824286461 pbc="F F F"
Sn       0.00000000       0.00000000       0.00000000       0.00000000       0.00000000      -2.84785581
Sn       0.00000000       0.00000000       2.47272727       0.00000000       0.00000000       2.84785581
2
Properties=species:S:1:pos:R:3:forces:R:3 energy=-3.7538620315621007 pbc="F F F"
Sn       0.00000000       0.00000000       0.00000000       0.00000000       0.00000000      -1.87713623
Sn       0.00000000       0.00000000       2.53151515       0.00000000       0.00000000       1.87713623
2
Properties=species:S:1:pos:R:3:forces:R:3 energy=-3.8395227001244967 pbc="F F F"
Sn       0.00000000       0.00000000       0.00000000       0.00000000       0.00000000      -1.06180561
Sn       0.00000000       0.00000000       2.59030303       0.00000000       0.00000000       1.06180561
2
Properties=species:S:1:pos:R:3:forces:R:3 energy=-3.88148935247175 pbc="F F F"
Sn       0.00000000       0.00000000       0.00000000       0.00000000       0.00000000      -0.38847083
Sn       0.00000000       0.00000000       2.64909091       0.00000000       0.00000000       0.38847083
2
Properties=species:S:1:pos:R:3:forces:R:3 energy=-3.8877109527301275 pbc="F F F"
Sn       0.00000000       0.00000000       0.00000000       0.00000000       0.00000000       0.15670015
Sn       0.00000000       0.00000000       2.70787879       0.00000000       0.00000000      -0.15670015
2
Properties=species:S:1:pos:R:3:forces:R:3 energy=-3.8652713983937033 pbc="F F F"
Sn       0.00000000       0.00000000       0.00000000       0.00000000       0.00000000       0.58930075
Sn       0.00000000       0.00000000       2.76666667       0.00000000       0.00000000      -0.58930075
2
Properties=species:S:1:pos:R:3:forces:R:3 energy=-3.8202839982643853 pbc="F F F"
Sn       0.00000000       0.00000000       0.00000000       0.00000000       0.00000000       0.92696762
Sn       0.00000000       0.00000000       2.82545455       0.00000000       0.00000000      -0.92696762
2
Properties=species:S:1:pos:R:3:forces:R:3 energy=-3.757782742412543 pbc="F F F"
Sn       0.00000000       0.00000000       0.00000000       0.00000000       0.00000000       1.18806970
Sn       0.00000000       0.00000000       2.88424242       0.00000000       0.00000000      -1.18806970
2
Properties=species:S:1:pos:R:3:forces:R:3 energy=-3.68176584942184 pbc="F F F"
Sn       0.00000000       0.00000000       0.00000000       0.00000000       0.00000000       1.38927507
Sn       0.00000000       0.00000000       2.94303030       0.00000000       0.00000000      -1.38927507
2
Properties=species:S:1:pos:R:3:forces:R:3 energy=-3.595358595623674 pbc="F F F"
Sn       0.00000000       0.00000000       0.00000000       0.00000000       0.00000000       1.54330635
Sn       0.00000000       0.00000000       3.00181818       0.00000000       0.00000000      -1.54330635
2
Properties=species:S:1:pos:R:3:forces:R:3 energy=-3.5010778228642305 pbc="F F F"
Sn       0.00000000       0.00000000       0.00000000       0.00000000       0.00000000       1.65805960
Sn       0.00000000       0.00000000       3.06060606       0.00000000       0.00000000      -1.65805960
2
Properties=species:S:1:pos:R:3:forces:R:3 energy=-3.401108248167382 pbc="F F F"
Sn       0.00000000       0.00000000       0.00000000       0.00000000       0.00000000       1.73715997
Sn       0.00000000       0.00000000       3.11939394       0.00000000       0.00000000      -1.73715997
2
Properties=species:S:1:pos:R:3:forces:R:3 energy=-3.2975058389749186 pbc="F F F"
Sn       0.00000000       0.00000000       0.00000000       0.00000000       0.00000000       1.78174853
Sn       0.00000000       0.00000000       3.17818182       0.00000000       0.00000000      -1.78174853
2
Properties=species:S:1:pos:R:3:forces:R:3 energy=-3.1922747999476595 pbc="F F F"
Sn       0.00000000       0.00000000       0.00000000       0.00000000       0.00000000       1.79285932
Sn       0.00000000       0.00000000       3.23696970       0.00000000       0.00000000      -1.79285932
2
Properties=species:S:1:pos:R:3:forces:R:3 energy=-3.087305556707271 pbc="F F F"
Sn       0.00000000       0.00000000       0.00000000       0.00000000       0.00000000       1.77368057
Sn       0.00000000       0.00000000       3.29575758       0.00000000       0.00000000      -1.77368057
2
Properties=species:S:1:pos:R:3:forces:R:3 energy=-2.9842078252569255 pbc="F F F"
Sn       0.00000000       0.00000000       0.00000000       0.00000000       0.00000000       1.73033512
Sn       0.00000000       0.00000000       3.35454545       0.00000000       0.00000000      -1.73033512
2
Properties=species:S:1:pos:R:3:forces:R:3 energy=-2.8841884627276095 pbc="F F F"
Sn       0.00000000       0.00000000       0.00000000       0.00000000       0.00000000       1.67014313
Sn       0.00000000       0.00000000       3.41333333       0.00000000       0.00000000      -1.67014313
2
Properties=species:S:1:pos:R:3:forces:R:3 energy=-2.7880471877588886 pbc="F F F"
Sn       0.00000000       0.00000000       0.00000000       0.00000000       0.00000000       1.59925926
Sn       0.00000000       0.00000000       3.47212121       0.00000000       0.00000000      -1.59925926
2
Properties=species:S:1:pos:R:3:forces:R:3 energy=-2.696272361392567 pbc="F F F"
Sn       0.00000000       0.00000000       0.00000000       0.00000000       0.00000000       1.52235138
Sn       0.00000000       0.00000000       3.53090909       0.00000000       0.00000000      -1.52235138
2
Properties=species:S:1:pos:R:3:forces:R:3 energy=-2.609097711400551 pbc="F F F"
Sn       0.00000000       0.00000000       0.00000000       0.00000000       0.00000000       1.44330919
Sn       0.00000000       0.00000000       3.58969697       0.00000000       0.00000000      -1.44330919
2
Properties=species:S:1:pos:R:3:forces:R:3 energy=-2.5265502937702626 pbc="F F F"
Sn       0.00000000       0.00000000       0.00000000       0.00000000       0.00000000       1.36539841
Sn       0.00000000       0.00000000       3.64848485       0.00000000       0.00000000      -1.36539841
2
Properties=species:S:1:pos:R:3:forces:R:3 energy=-2.4484883724869686 pbc="F F F"
Sn       0.00000000       0.00000000       0.00000000       0.00000000       0.00000000       1.29112148
Sn       0.00000000       0.00000000       3.70727273       0.00000000       0.00000000      -1.29112148
2
Properties=species:S:1:pos:R:3:forces:R:3 energy=-2.3746395227309884 pbc="F F F"
Sn       0.00000000       0.00000000       0.00000000       0.00000000       0.00000000       1.22222233
Sn       0.00000000       0.00000000       3.76606061       0.00000000       0.00000000      -1.22222233
2
Properties=species:S:1:pos:R:3:forces:R:3 energy=-2.3046581777822106 pbc="F F F"
Sn       0.00000000       0.00000000       0.00000000       0.00000000       0.00000000       1.15976703
Sn       0.00000000       0.00000000       3.82484848       0.00000000       0.00000000      -1.15976703
2
Properties=species:S:1:pos:R:3:forces:R:3 energy=-2.238144294049883 pbc="F F F"
Sn       0.00000000       0.00000000       0.00000000       0.00000000       0.00000000       1.10419106
Sn       0.00000000       0.00000000       3.88363636       0.00000000       0.00000000      -1.10419106
2
Properties=species:S:1:pos:R:3:forces:R:3 energy=-2.1746992482465224 pbc="F F F"
Sn       0.00000000       0.00000000       0.00000000       0.00000000       0.00000000       1.05533457
Sn       0.00000000       0.00000000       3.94242424       0.00000000       0.00000000      -1.05533457
2
Properties=species:S:1:pos:R:3:forces:R:3 energy=-2.113946565981395 pbc="F F F"
Sn       0.00000000       0.00000000       0.00000000       0.00000000       0.00000000       1.01244152
Sn       0.00000000       0.00000000       4.00121212       0.00000000       0.00000000      -1.01244152
2
Properties=species:S:1:pos:R:3:forces:R:3 energy=-2.055569774637927 pbc="F F F"
Sn       0.00000000       0.00000000       0.00000000       0.00000000       0.00000000       0.97419369
Sn       0.00000000       0.00000000       4.06000000       0.00000000       0.00000000      -0.97419369
2
Properties=species:S:1:pos:R:3:forces:R:3 energy=-1.9993485382997491 pbc="F F F"
Sn       0.00000000       0.00000000       0.00000000       0.00000000       0.00000000       0.93880916
Sn       0.00000000       0.00000000       4.11878788       0.00000000       0.00000000      -0.93880916
2
Properties=species:S:1:pos:R:3:forces:R:3 energy=-1.9451734011928519 pbc="F F F"
Sn       0.00000000       0.00000000       0.00000000       0.00000000       0.00000000       0.90419662
Sn       0.00000000       0.00000000       4.17757576       0.00000000       0.00000000      -0.90419662
2
Properties=species:S:1:pos:R:3:forces:R:3 energy=-1.8930635997229635 pbc="F F F"
Sn       0.00000000       0.00000000       0.00000000       0.00000000       0.00000000       0.86820078
Sn       0.00000000       0.00000000       4.23636364       0.00000000       0.00000000      -0.86820078
2
Properties=species:S:1:pos:R:3:forces:R:3 energy=-1.8431576904591378 pbc="F F F"
Sn       0.00000000       0.00000000       0.00000000       0.00000000       0.00000000       0.82890874
Sn       0.00000000       0.00000000       4.29515152       0.00000000       0.00000000      -0.82890874
2
Properties=species:S:1:pos:R:3:forces:R:3 energy=-1.795696513876768 pbc="F F F"
Sn       0.00000000       0.00000000       0.00000000       0.00000000       0.00000000       0.78495628
Sn       0.00000000       0.00000000       4.35393939       0.00000000       0.00000000      -0.78495628
2
Properties=species:S:1:pos:R:3:forces:R:3 energy=-1.7509710250382726 pbc="F F F"
Sn       0.00000000       0.00000000       0.00000000       0.00000000       0.00000000       0.73573601
Sn       0.00000000       0.00000000       4.41272727       0.00000000       0.00000000      -0.73573601
2
Properties=species:S:1:pos:R:3:forces:R:3 energy=-1.7092907241381674 pbc="F F F"
Sn       0.00000000       0.00000000       0.00000000       0.00000000       0.00000000       0.68145585
Sn       0.00000000       0.00000000       4.47151515       0.00000000       0.00000000      -0.68145585
2
Properties=species:S:1:pos:R:3:forces:R:3 energy=-1.6709294491224942 pbc="F F F"
Sn       0.00000000       0.00000000       0.00000000       0.00000000       0.00000000       0.62301165
Sn       0.00000000       0.00000000       4.53030303       0.00000000       0.00000000      -0.62301165
2
Properties=species:S:1:pos:R:3:forces:R:3 energy=-1.6360961702447978 pbc="F F F"
Sn       0.00000000       0.00000000       0.00000000       0.00000000       0.00000000       0.56171024
Sn       0.00000000       0.00000000       4.58909091       0.00000000       0.00000000      -0.56171024
2
Properties=species:S:1:pos:R:3:forces:R:3 energy=-1.6049141537830327 pbc="F F F"
Sn       0.00000000       0.00000000       0.00000000       0.00000000       0.00000000       0.49901521
Sn       0.00000000       0.00000000       4.64787879       0.00000000       0.00000000      -0.49901521
2
Properties=species:S:1:pos:R:3:forces:R:3 energy=-1.577423756538247 pbc="F F F"
Sn       0.00000000       0.00000000       0.00000000       0.00000000       0.00000000       0.43631423
Sn       0.00000000       0.00000000       4.70666667       0.00000000       0.00000000      -0.43631423
2
Properties=species:S:1:pos:R:3:forces:R:3 energy=-1.5535869292770554 pbc="F F F"
Sn       0.00000000       0.00000000       0.00000000       0.00000000       0.00000000       0.37498817
Sn       0.00000000       0.00000000       4.76545455       0.00000000       0.00000000      -0.37498817
2
Properties=species:S:1:pos:R:3:forces:R:3 energy=-1.5332784079155022 pbc="F F F"
Sn       0.00000000       0.00000000       0.00000000       0.00000000       0.00000000       0.31651664
Sn       0.00000000       0.00000000       4.82424242       0.00000000       0.00000000      -0.31651664
2
Properties=species:S:1:pos:R:3:forces:R:3 energy=-1.5162806643792592 pbc="F F F"
Sn       0.00000000       0.00000000       0.00000000       0.00000000       0.00000000       0.26277429
Sn       0.00000000       0.00000000       4.88303030       0.00000000       0.00000000      -0.26277429
2
Properties=species:S:1:pos:R:3:forces:R:3 energy=-1.5022452574512344 pbc="F F F"
Sn       0.00000000       0.00000000       0.00000000       0.00000000       0.00000000       0.21608695
Sn       0.00000000       0.00000000       4.94181818       0.00000000       0.00000000      -0.21608695
2
Properties=species:S:1:pos:R:3:forces:R:3 energy=-1.490683445747967 pbc="F F F"
Sn       0.00000000       0.00000000       0.00000000       0.00000000       0.00000000       0.17904563
Sn       0.00000000       0.00000000       5.00060606       0.00000000       0.00000000      -0.17904563
2
Properties=species:S:1:pos:R:3:forces:R:3 energy=-1.4809627417376077 pbc="F F F"
Sn       0.00000000       0.00000000       0.00000000       0.00000000       0.00000000       0.15370508
Sn       0.00000000       0.00000000       5.05939394       0.00000000       0.00000000      -0.15370508
2
Properties=species:S:1:pos:R:3:forces:R:3 energy=-1.4723733339049132 pbc="F F F"
Sn       0.00000000       0.00000000       0.00000000       0.00000000       0.00000000       0.14040875
Sn       0.00000000       0.00000000       5.11818182       0.00000000       0.00000000      -0.14040875
2
Properties=species:S:1:pos:R:3:forces:R:3 energy=-1.4642670721115727 pbc="F F F"
Sn       0.00000000       0.00000000       0.00000000       0.00000000       0.00000000       0.13655874
Sn       0.00000000       0.00000000       5.17696970       0.00000000       0.00000000      -0.13655874
2
Properties=species:S:1:pos:R:3:forces:R:3 energy=-1.4562473648266407 pbc="F F F"
Sn       0.00000000       0.00000000       0.00000000       0.00000000       0.00000000       0.13626708
Sn       0.00000000       0.00000000       5.23575758       0.00000000       0.00000000      -0.13626708
2
Properties=species:S:1:pos:R:3:forces:R:3 energy=-1.4483148766370348 pbc="F F F"
Sn       0.00000000       0.00000000       0.00000000       0.00000000       0.00000000       0.13264199
Sn       0.00000000       0.00000000       5.29454545       0.00000000       0.00000000      -0.13264199
2
Properties=species:S:1:pos:R:3:forces:R:3 energy=-1.4407452115969004 pbc="F F F"
Sn       0.00000000       0.00000000       0.00000000       0.00000000       0.00000000       0.12474713
Sn       0.00000000       0.00000000       5.35333333       0.00000000       0.00000000      -0.12474713
2
Properties=species:S:1:pos:R:3:forces:R:3 energy=-1.4335036958182727 pbc="F F F"
Sn       0.00000000       0.00000000       0.00000000       0.00000000       0.00000000       0.12419662
Sn       0.00000000       0.00000000       5.41212121       0.00000000       0.00000000      -0.12419662
2
Properties=species:S:1:pos:R:3:forces:R:3 energy=-1.4258091570025202 pbc="F F F"
Sn       0.00000000       0.00000000       0.00000000       0.00000000       0.00000000       0.13927916
Sn       0.00000000       0.00000000       5.47090909       0.00000000       0.00000000      -0.13927916
2
Properties=species:S:1:pos:R:3:forces:R:3 energy=-1.4172441047148192 pbc="F F F"
Sn       0.00000000       0.00000000       0.00000000       0.00000000       0.00000000       0.14862978
Sn       0.00000000       0.00000000       5.52969697       0.00000000       0.00000000      -0.14862978
2
Properties=species:S:1:pos:R:3:forces:R:3 energy=-1.4087992928643522 pbc="F F F"
Sn       0.00000000       0.00000000       0.00000000       0.00000000       0.00000000       0.13573337
Sn       0.00000000       0.00000000       5.58848485       0.00000000       0.00000000      -0.13573337
2
Properties=species:S:1:pos:R:3:forces:R:3 energy=-1.4013623253107155 pbc="F F F"
Sn       0.00000000       0.00000000       0.00000000       0.00000000       0.00000000       0.11898343
Sn       0.00000000       0.00000000       5.64727273       0.00000000       0.00000000      -0.11898343
2
Properties=species:S:1:pos:R:3:forces:R:3 energy=-1.3944250536982077 pbc="F F F"
Sn       0.00000000       0.00000000       0.00000000       0.00000000       0.00000000       0.12071917
Sn       0.00000000       0.00000000       5.70606061       0.00000000       0.00000000      -0.12071917
2
Properties=species:S:1:pos:R:3:forces:R:3 energy=-1.3869787738640442 pbc="F F F"
Sn       0.00000000       0.00000000       0.00000000       0.00000000       0.00000000       0.13033164
Sn       0.00000000       0.00000000       5.76484848       0.00000000       0.00000000      -0.13033164
2
Properties=species:S:1:pos:R:3:forces:R:3 energy=-1.3796655590409657 pbc="F F F"
Sn       0.00000000       0.00000000       0.00000000       0.00000000       0.00000000       0.11277056
Sn       0.00000000       0.00000000       5.82363636       0.00000000       0.00000000      -0.11277056
2
Properties=species:S:1:pos:R:3:forces:R:3 energy=-1.3742864819400653 pbc="F F F"
Sn       0.00000000       0.00000000       0.00000000       0.00000000       0.00000000       0.06843131
Sn       0.00000000       0.00000000       5.88242424       0.00000000       0.00000000      -0.06843131
2
Properties=species:S:1:pos:R:3:forces:R:3 energy=-1.3715541093298622 pbc="F F F"
Sn       0.00000000       0.00000000       0.00000000       0.00000000       0.00000000       0.02696366
Sn       0.00000000       0.00000000       5.94121212       0.00000000       0.00000000      -0.02696366
2
Properties=species:S:1:pos:R:3:forces:R:3 energy=-1.370607475867075 pbc="F F F"
Sn       0.00000000       0.00000000       0.00000000       0.00000000       0.00000000       0.01052490
Sn       0.00000000       0.00000000       6.00000000       0.00000000       0.00000000      -0.01052490
