2
Properties=species:S:1:pos:R:3:forces:R:3 energy=42391.988105413446 pbc="F F F"
Sn       0.00000000       0.00000000       0.00000000       0.00000000       0.00000000 -1018908.00000000
Sn       0.00000000       0.00000000       0.10000000       0.00000000       0.00000000 1018908.00000000
2
Properties=species:S:1:pos:R:3:forces:R:3 energy=12473.343574163444 pbc="F F F"
Sn       0.00000000       0.00000000       0.00000000       0.00000000       0.00000000 -221623.70312500
Sn       0.00000000       0.00000000       0.15959596       0.00000000       0.00000000  221623.70312500
2
Properties=species:S:1:pos:R:3:forces:R:3 energy=4829.720039007194 pbc="F F F"
Sn       0.00000000       0.00000000       0.00000000       0.00000000       0.00000000  -69312.00000000
Sn       0.00000000       0.00000000       0.21919192       0.00000000       0.00000000   69312.00000000
2
Properties=species:S:1:pos:R:3:forces:R:3 energy=2208.423896429069 pbc="F F F"
Sn       0.00000000       0.00000000       0.00000000       0.00000000       0.00000000  -26517.63867188
Sn       0.00000000       0.00000000       0.27878788       0.00000000       0.00000000   26517.63867188
2
Properties=species:S:1:pos:R:3:forces:R:3 energy=1147.4125438963422 pbc="F F F"
Sn       0.00000000       0.00000000       0.00000000       0.00000000       0.00000000  -11456.93261719
Sn       0.00000000       0.00000000       0.33838384       0.00000000       0.00000000   11456.93261719
2
Properties=species:S:1:pos:R:3:forces:R:3 energy=671.3098827698652 pbc="F F F"
Sn       0.00000000       0.00000000       0.00000000       0.00000000       0.00000000   -5375.19433594
Sn       0.00000000       0.00000000       0.39797980       0.00000000       0.00000000    5375.19433594
2
Properties=species:S:1:pos:R:3:forces:R:3 energy=441.11417354768525 pbc="F F F"
Sn       0.00000000       0.00000000       0.00000000       0.00000000       0.00000000   -2697.20556641
Sn       0.00000000       0.00000000       0.45757576       0.00000000       0.00000000    2697.20556641
2
Properties=species:S:1:pos:R:3:forces:R:3 energy=322.05594602446183 pbc="F F F"
Sn       0.00000000       0.00000000       0.00000000       0.00000000       0.00000000   -1451.74609375
Sn       0.00000000       0.00000000       0.51717172       0.00000000       0.00000000    1451.74609375
2
Properties=species:S:1:pos:R:3:forces:R:3 energy=255.39464539379256 pbc="F F F"
Sn       0.00000000       0.00000000       0.00000000       0.00000000       0.00000000    -858.10528564
Sn       0.00000000       0.00000000       0.57676768       0.00000000       0.00000000     858.10528564
2
Properties=species:S:1:pos:R:3:forces:R:3 energy=213.56977057288367 pbc="F F F"
Sn       0.00000000       0.00000000       0.00000000       0.00000000       0.00000000    -582.38720703
Sn       0.00000000       0.00000000       0.63636364       0.00000000       0.00000000     582.38720703
2
Properties=species:S:1:pos:R:3:forces:R:3 energy=182.76387771091112 pbc="F F F"
Sn       0.00000000       0.00000000       0.00000000       0.00000000       0.00000000    -470.65609741
Sn       0.00000000       0.00000000       0.69595960       0.00000000       0.00000000     470.65609741
2
Properties=species:S:1:pos:R:3:forces:R:3 energy=155.88654324923309 pbc="F F F"
Sn       0.00000000       0.00000000       0.00000000       0.00000000       0.00000000    -439.26165771
Sn       0.00000000       0.00000000       0.75555556       0.00000000       0.00000000     439.26165771
2
Properties=species:S:1:pos:R:3:forces:R:3 energy=130.0513078435993 pbc="F F F"
Sn       0.00000000       0.00000000       0.00000000       0.00000000       0.00000000    -426.33673096
Sn       0.00000000       0.00000000       0.81515152       0.00000000       0.00000000     426.33673096
2
Properties=species:S:1:pos:R:3:forces:R:3 energy=105.45960280010202 pbc="F F F"
Sn       0.00000000       0.00000000       0.00000000       0.00000000       0.00000000    -396.23638916
Sn       0.00000000       0.00000000       0.87474747       0.00000000       0.00000000     396.23638916
2
Properties=species:S:1:pos:R:3:forces:R:3 energy=82.98224723904853 pbc="F F F"
Sn       0.00000000       0.00000000       0.00000000       0.00000000       0.00000000    -356.15936279
Sn       0.00000000       0.00000000       0.93434343       0.00000000       0.00000000     356.15936279
2
Properties=species:S:1:pos:R:3:forces:R:3 energy=63.566811996066136 pbc="F F F"
Sn       0.00000000       0.00000000       0.00000000       0.00000000       0.00000000    -288.97500610
Sn       0.00000000       0.00000000       0.99393939       0.00000000       0.00000000     288.97500610
2
Properties=species:S:1:pos:R:3:forces:R:3 energy=48.849054552289935 pbc="F F F"
Sn       0.00000000       0.00000000       0.00000000       0.00000000       0.00000000    -209.39959717
Sn       0.00000000       0.00000000       1.05353535       0.00000000       0.00000000     209.39959717
2
Properties=species:S:1:pos:R:3:forces:R:3 energy=38.313960332142344 pbc="F F F"
Sn       0.00000000       0.00000000       0.00000000       0.00000000       0.00000000    -142.97035217
Sn       0.00000000       0.00000000       1.11313131       0.00000000       0.00000000     142.97035217
2
Properties=species:S:1:pos:R:3:forces:R:3 energy=31.75497687764752 pbc="F F F"
Sn       0.00000000       0.00000000       0.00000000       0.00000000       0.00000000     -79.32650757
Sn       0.00000000       0.00000000       1.17272727       0.00000000       0.00000000      79.32650757
2
Properties=species:S:1:pos:R:3:forces:R:3 energy=28.200903334511324 pbc="F F F"
Sn       0.00000000       0.00000000       0.00000000       0.00000000       0.00000000     -48.46366882
Sn       0.00000000       0.00000000       1.23232323       0.00000000       0.00000000      48.46366882
2
Properties=species:S:1:pos:R:3:forces:R:3 energy=25.270882323781407 pbc="F F F"
Sn       0.00000000       0.00000000       0.00000000       0.00000000       0.00000000     -50.04561234
Sn       0.00000000       0.00000000       1.29191919       0.00000000       0.00000000      50.04561234
2
Properties=species:S:1:pos:R:3:forces:R:3 energy=22.64734802569151 pbc="F F F"
Sn       0.00000000       0.00000000       0.00000000       0.00000000       0.00000000     -35.73033524
Sn       0.00000000       0.00000000       1.35151515       0.00000000       0.00000000      35.73033524
2
Properties=species:S:1:pos:R:3:forces:R:3 energy=20.712952856005003 pbc="F F F"
Sn       0.00000000       0.00000000       0.00000000       0.00000000       0.00000000     -34.29230881
Sn       0.00000000       0.00000000       1.41111111       0.00000000       0.00000000      34.29230881
2
Properties=species:S:1:pos:R:3:forces:R:3 energy=18.21738033740084 pbc="F F F"
Sn       0.00000000       0.00000000       0.00000000       0.00000000       0.00000000     -48.90732574
Sn       0.00000000       0.00000000       1.47070707       0.00000000       0.00000000      48.90732574
2
Properties=species:S:1:pos:R:3:forces:R:3 energy=15.139869147905426 pbc="F F F"
Sn       0.00000000       0.00000000       0.00000000       0.00000000       0.00000000     -52.33981323
Sn       0.00000000       0.00000000       1.53030303       0.00000000       0.00000000      52.33981323
2
Properties=species:S:1:pos:R:3:forces:R:3 energy=12.121211370593462 pbc="F F F"
Sn       0.00000000       0.00000000       0.00000000       0.00000000       0.00000000     -48.27822113
Sn       0.00000000       0.00000000       1.58989899       0.00000000       0.00000000      48.27822113
2
Properties=species:S:1:pos:R:3:forces:R:3 energy=9.445442909890723 pbc="F F F"
Sn       0.00000000       0.00000000       0.00000000       0.00000000       0.00000000     -41.20688248
Sn       0.00000000       0.00000000       1.64949495       0.00000000       0.00000000      41.20688248
2
Properties=species:S:1:pos:R:3:forces:R:3 energy=7.217733340830205 pbc="F F F"
Sn       0.00000000       0.00000000       0.00000000       0.00000000       0.00000000     -33.70484924
Sn       0.00000000       0.00000000       1.70909091       0.00000000       0.00000000      33.70484924
2
Properties=species:S:1:pos:R:3:forces:R:3 energy=5.396207042758237 pbc="F F F"
Sn       0.00000000       0.00000000       0.00000000       0.00000000       0.00000000     -27.73687553
Sn       0.00000000       0.00000000       1.76868687       0.00000000       0.00000000      27.73687553
2
Properties=species:S:1:pos:R:3:forces:R:3 energy=3.8773591947066954 pbc="F F F"
Sn       0.00000000       0.00000000       0.00000000       0.00000000       0.00000000     -23.47772217
Sn       0.00000000       0.00000000       1.82828283       0.00000000       0.00000000      23.47772217
2
Properties=species:S:1:pos:R:3:forces:R:3 energy=2.5750858471653064 pbc="F F F"
Sn       0.00000000       0.00000000       0.00000000       0.00000000       0.00000000     -20.36965179
Sn       0.00000000       0.00000000       1.88787879       0.00000000       0.00000000      20.36965179
2
Properties=species:S:1:pos:R:3:forces:R:3 energy=1.4367186579130504 pbc="F F F"
Sn       0.00000000       0.00000000       0.00000000       0.00000000       0.00000000     -17.90935707
Sn       0.00000000       0.00000000       1.94747475       0.00000000       0.00000000      17.90935707
2
Properties=species:S:1:pos:R:3:forces:R:3 energy=0.4339905581568324 pbc="F F F"
Sn       0.00000000       0.00000000       0.00000000       0.00000000       0.00000000     -15.77772522
Sn       0.00000000       0.00000000       2.00707071       0.00000000       0.00000000      15.77772522
2
Properties=species:S:1:pos:R:3:forces:R:3 energy=-0.4467452568025124 pbc="F F F"
Sn       0.00000000       0.00000000       0.00000000       0.00000000       0.00000000     -13.79476070
Sn       0.00000000       0.00000000       2.06666667       0.00000000       0.00000000      13.79476070
2
Properties=species:S:1:pos:R:3:forces:R:3 energy=-1.2114885446545784 pbc="F F F"
Sn       0.00000000       0.00000000       0.00000000       0.00000000       0.00000000     -11.87743187
Sn       0.00000000       0.00000000       2.12626263       0.00000000       0.00000000      11.87743187
2
Properties=species:S:1:pos:R:3:forces:R:3 energy=-1.8634242426589331 pbc="F F F"
Sn       0.00000000       0.00000000       0.00000000       0.00000000       0.00000000     -10.01123905
Sn       0.00000000       0.00000000       2.18585859       0.00000000       0.00000000      10.01123905
2
Properties=species:S:1:pos:R:3:forces:R:3 energy=-2.406347582616845 pbc="F F F"
Sn       0.00000000       0.00000000       0.00000000       0.00000000       0.00000000      -8.22630596
Sn       0.00000000       0.00000000       2.24545455       0.00000000       0.00000000       8.22630596
2
Properties=species:S:1:pos:R:3:forces:R:3 energy=-2.8464950738668255 pbc="F F F"
Sn       0.00000000       0.00000000       0.00000000       0.00000000       0.00000000      -6.56987333
Sn       0.00000000       0.00000000       2.30505051       0.00000000       0.00000000       6.56987333
2
Properties=species:S:1:pos:R:3:forces:R:3 energy=-3.1927529876607688 pbc="F F F"
Sn       0.00000000       0.00000000       0.00000000       0.00000000       0.00000000      -5.08034039
Sn       0.00000000       0.00000000       2.36464646       0.00000000       0.00000000       5.08034039
2
Properties=species:S:1:pos:R:3:forces:R:3 energy=-3.455699087538223 pbc="F F F"
Sn       0.00000000       0.00000000       0.00000000       0.00000000       0.00000000      -3.77488565
Sn       0.00000000       0.00000000       2.42424242       0.00000000       0.00000000       3.77488565
2
Properties=species:S:1:pos:R:3:forces:R:3 energy=-3.6463207338219914 pbc="F F F"
Sn       0.00000000       0.00000000       0.00000000       0.00000000       0.00000000      -2.65185165
Sn       0.00000000       0.00000000       2.48383838       0.00000000       0.00000000       2.65185165
2
Properties=species:S:1:pos:R:3:forces:R:3 energy=-3.7751731796707824 pbc="F F F"
Sn       0.00000000       0.00000000       0.00000000       0.00000000       0.00000000      -1.69970608
Sn       0.00000000       0.00000000       2.54343434       0.00000000       0.00000000       1.69970608
2
Properties=species:S:1:pos:R:3:forces:R:3 energy=-3.8520288066642014 pbc="F F F"
Sn       0.00000000       0.00000000       0.00000000       0.00000000       0.00000000      -0.90445036
Sn       0.00000000       0.00000000       2.60303030       0.00000000       0.00000000       0.90445036
2
Properties=species:S:1:pos:R:3:forces:R:3 energy=-3.8858171953762777 pbc="F F F"
Sn       0.00000000       0.00000000       0.00000000       0.00000000       0.00000000      -0.25212604
Sn       0.00000000       0.00000000       2.66262626       0.00000000       0.00000000       0.25212604
2
Properties=species:S:1:pos:R:3:forces:R:3 energy=-3.884628539263302 pbc="F F F"
Sn       0.00000000       0.00000000       0.00000000       0.00000000       0.00000000       0.27198845
Sn       0.00000000       0.00000000       2.72222222       0.00000000       0.00000000      -0.27198845
2
Properties=species:S:1:pos:R:3:forces:R:3 energy=-3.8556131809110923 pbc="F F F"
Sn       0.00000000       0.00000000       0.00000000       0.00000000       0.00000000       0.68466783
Sn       0.00000000       0.00000000       2.78181818       0.00000000       0.00000000      -0.68466783
2
Properties=species:S:1:pos:R:3:forces:R:3 energy=-3.804861813370666 pbc="F F F"
Sn       0.00000000       0.00000000       0.00000000       0.00000000       0.00000000       1.00467408
Sn       0.00000000       0.00000000       2.84141414       0.00000000       0.00000000      -1.00467408
2
Properties=species:S:1:pos:R:3:forces:R:3 energy=-3.7373285096431306 pbc="F F F"
Sn       0.00000000       0.00000000       0.00000000       0.00000000       0.00000000       1.25091970
Sn       0.00000000       0.00000000       2.90101010       0.00000000       0.00000000      -1.25091970
2
Properties=species:S:1:pos:R:3:forces:R:3 energy=-3.6568982258240195 pbc="F F F"
Sn       0.00000000       0.00000000       0.00000000       0.00000000       0.00000000       1.43981564
Sn       0.00000000       0.00000000       2.96060606       0.00000000       0.00000000      -1.43981564
2
Properties=species:S:1:pos:R:3:forces:R:3 energy=-3.5666142012630506 pbc="F F F"
Sn       0.00000000       0.00000000       0.00000000       0.00000000       0.00000000       1.58317256
Sn       0.00000000       0.00000000       3.02020202       0.00000000       0.00000000      -1.58317256
2
Properties=species:S:1:pos:R:3:forces:R:3 energy=-3.468965176956884 pbc="F F F"
Sn       0.00000000       0.00000000       0.00000000       0.00000000       0.00000000       1.68771803
Sn       0.00000000       0.00000000       3.07979798       0.00000000       0.00000000      -1.68771803
2
Properties=species:S:1:pos:R:3:forces:R:3 energy=-3.366167832739153 pbc="F F F"
Sn       0.00000000       0.00000000       0.00000000       0.00000000       0.00000000       1.75617099
Sn       0.00000000       0.00000000       3.13939394       0.00000000       0.00000000      -1.75617099
2
Properties=species:S:1:pos:R:3:forces:R:3 energy=-3.260343330910747 pbc="F F F"
Sn       0.00000000       0.00000000       0.00000000       0.00000000       0.00000000       1.78940761
Sn       0.00000000       0.00000000       3.19898990       0.00000000       0.00000000      -1.78940761
2
Properties=species:S:1:pos:R:3:forces:R:3 energy=-3.153553680622362 pbc="F F F"
Sn       0.00000000       0.00000000       0.00000000       0.00000000       0.00000000       1.78906035
Sn       0.00000000       0.00000000       3.25858586       0.00000000       0.00000000      -1.78906035
2
Properties=species:S:1:pos:R:3:forces:R:3 energy=-3.0476832606645776 pbc="F F F"
Sn       0.00000000       0.00000000       0.00000000       0.00000000       0.00000000       1.75959420
Sn       0.00000000       0.00000000       3.31818182       0.00000000       0.00000000      -1.75959420
2
Properties=species:S:1:pos:R:3:forces:R:3 energy=-2.9442607792743978 pbc="F F F"
Sn       0.00000000       0.00000000       0.00000000       0.00000000       0.00000000       1.70817697
Sn       0.00000000       0.00000000       3.37777778       0.00000000       0.00000000      -1.70817697
2
Properties=species:S:1:pos:R:3:forces:R:3 energy=-2.844371362383636 pbc="F F F"
Sn       0.00000000       0.00000000       0.00000000       0.00000000       0.00000000       1.64215863
Sn       0.00000000       0.00000000       3.43737374       0.00000000       0.00000000      -1.64215863
2
Properties=species:S:1:pos:R:3:forces:R:3 energy=-2.7487041498993117 pbc="F F F"
Sn       0.00000000       0.00000000       0.00000000       0.00000000       0.00000000       1.56724977
Sn       0.00000000       0.00000000       3.49696970       0.00000000       0.00000000      -1.56724977
2
Properties=species:S:1:pos:R:3:forces:R:3 energy=-2.657654004867855 pbc="F F F"
Sn       0.00000000       0.00000000       0.00000000       0.00000000       0.00000000       1.48790896
Sn       0.00000000       0.00000000       3.55656566       0.00000000       0.00000000      -1.48790896
2
Properties=species:S:1:pos:R:3:forces:R:3 energy=-2.571369835903221 pbc="F F F"
Sn       0.00000000       0.00000000       0.00000000       0.00000000       0.00000000       1.40792978
Sn       0.00000000       0.00000000       3.61616162       0.00000000       0.00000000      -1.40792978
2
Properties=species:S:1:pos:R:3:forces:R:3 energy=-2.4897926764440097 pbc="F F F"
Sn       0.00000000       0.00000000       0.00000000       0.00000000       0.00000000       1.33036423
Sn       0.00000000       0.00000000       3.67575758       0.00000000       0.00000000      -1.33036423
2
Properties=species:S:1:pos:R:3:forces:R:3 energy=-2.4127085714684067 pbc="F F F"
Sn       0.00000000       0.00000000       0.00000000       0.00000000       0.00000000       1.25745916
Sn       0.00000000       0.00000000       3.73535354       0.00000000       0.00000000      -1.25745916
2
Properties=species:S:1:pos:R:3:forces:R:3 energy=-2.3397913148954945 pbc="F F F"
Sn       0.00000000       0.00000000       0.00000000       0.00000000       0.00000000       1.19068515
Sn       0.00000000       0.00000000       3.79494949       0.00000000       0.00000000      -1.19068515
2
Properties=species:S:1:pos:R:3:forces:R:3 energy=-2.270650014940037 pbc="F F F"
Sn       0.00000000       0.00000000       0.00000000       0.00000000       0.00000000       1.13082826
Sn       0.00000000       0.00000000       3.85454545       0.00000000       0.00000000      -1.13082826
2
Properties=species:S:1:pos:R:3:forces:R:3 energy=-2.2048655279980895 pbc="F F F"
Sn       0.00000000       0.00000000       0.00000000       0.00000000       0.00000000       1.07803440
Sn       0.00000000       0.00000000       3.91414141       0.00000000       0.00000000      -1.07803440
2
Properties=species:S:1:pos:R:3:forces:R:3 energy=-2.1420256015651593 pbc="F F F"
Sn       0.00000000       0.00000000       0.00000000       0.00000000       0.00000000       1.03181422
Sn       0.00000000       0.00000000       3.97373737       0.00000000       0.00000000      -1.03181422
2
Properties=species:S:1:pos:R:3:forces:R:3 energy=-2.0817720237743695 pbc="F F F"
Sn       0.00000000       0.00000000       0.00000000       0.00000000       0.00000000       0.99107128
Sn       0.00000000       0.00000000       4.03333333       0.00000000       0.00000000      -0.99107128
2
Properties=species:S:1:pos:R:3:forces:R:3 energy=-2.0238220705733445 pbc="F F F"
Sn       0.00000000       0.00000000       0.00000000       0.00000000       0.00000000       0.95415026
Sn       0.00000000       0.00000000       4.09292929       0.00000000       0.00000000      -0.95415026
2
Properties=species:S:1:pos:R:3:forces:R:3 energy=-1.9680089488557042 pbc="F F F"
Sn       0.00000000       0.00000000       0.00000000       0.00000000       0.00000000       0.91899192
Sn       0.00000000       0.00000000       4.15252525       0.00000000       0.00000000      -0.91899192
2
Properties=species:S:1:pos:R:3:forces:R:3 energy=-1.9142959406889495 pbc="F F F"
Sn       0.00000000       0.00000000       0.00000000       0.00000000       0.00000000       0.88334483
Sn       0.00000000       0.00000000       4.21212121       0.00000000       0.00000000      -0.88334483
2
Properties=species:S:1:pos:R:3:forces:R:3 energy=-1.862774101492047 pbc="F F F"
Sn       0.00000000       0.00000000       0.00000000       0.00000000       0.00000000       0.84506869
Sn       0.00000000       0.00000000       4.27171717       0.00000000       0.00000000      -0.84506869
2
Properties=species:S:1:pos:R:3:forces:R:3 energy=-1.8136570583442801 pbc="F F F"
Sn       0.00000000       0.00000000       0.00000000       0.00000000       0.00000000       0.80247998
Sn       0.00000000       0.00000000       4.33131313       0.00000000       0.00000000      -0.80247998
2
Properties=species:S:1:pos:R:3:forces:R:3 energy=-1.7672306973294158 pbc="F F F"
Sn       0.00000000       0.00000000       0.00000000       0.00000000       0.00000000       0.75462168
Sn       0.00000000       0.00000000       4.39090909       0.00000000       0.00000000      -0.75462168
2
Properties=species:S:1:pos:R:3:forces:R:3 energy=-1.7238184894715542 pbc="F F F"
Sn       0.00000000       0.00000000       0.00000000       0.00000000       0.00000000       0.70139098
Sn       0.00000000       0.00000000       4.45050505       0.00000000       0.00000000      -0.70139098
2
Properties=species:S:1:pos:R:3:forces:R:3 energy=-1.6837239316552102 pbc="F F F"
Sn       0.00000000       0.00000000       0.00000000       0.00000000       0.00000000       0.64348954
Sn       0.00000000       0.00000000       4.51010101       0.00000000       0.00000000      -0.64348954
2
Properties=species:S:1:pos:R:3:forces:R:3 energy=-1.6471878400213014 pbc="F F F"
Sn       0.00000000       0.00000000       0.00000000       0.00000000       0.00000000       0.58215982
Sn       0.00000000       0.00000000       4.56969697       0.00000000       0.00000000      -0.58215982
2
Properties=species:S:1:pos:R:3:forces:R:3 energy=-1.6143728190814162 pbc="F F F"
Sn       0.00000000       0.00000000       0.00000000       0.00000000       0.00000000       0.51889932
Sn       0.00000000       0.00000000       4.62929293       0.00000000       0.00000000      -0.51889932
2
Properties=species:S:1:pos:R:3:forces:R:3 energy=-1.5853489637706293 pbc="F F F"
Sn       0.00000000       0.00000000       0.00000000       0.00000000       0.00000000       0.45519626
Sn       0.00000000       0.00000000       4.68888889       0.00000000       0.00000000      -0.45519626
2
Properties=species:S:1:pos:R:3:forces:R:3 energy=-1.5600979537450341 pbc="F F F"
Sn       0.00000000       0.00000000       0.00000000       0.00000000       0.00000000       0.39246744
Sn       0.00000000       0.00000000       4.74848485       0.00000000       0.00000000      -0.39246744
2
Properties=species:S:1:pos:R:3:forces:R:3 energy=-1.5385209442015273 pbc="F F F"
Sn       0.00000000       0.00000000       0.00000000       0.00000000       0.00000000       0.33221024
Sn       0.00000000       0.00000000       4.80808081       0.00000000       0.00000000      -0.33221024
2
Properties=species:S:1:pos:R:3:forces:R:3 energy=-1.5204169204722633 pbc="F F F"
Sn       0.00000000       0.00000000       0.00000000       0.00000000       0.00000000       0.27622664
Sn       0.00000000       0.00000000       4.86767677       0.00000000       0.00000000      -0.27622664
2
Properties=species:S:1:pos:R:3:forces:R:3 energy=-1.505465615082254 pbc="F F F"
Sn       0.00000000       0.00000000       0.00000000       0.00000000       0.00000000       0.22683720
Sn       0.00000000       0.00000000       4.92727273       0.00000000       0.00000000      -0.22683720
2
Properties=species:S:1:pos:R:3:forces:R:3 energy=-1.493195248381281 pbc="F F F"
Sn       0.00000000       0.00000000       0.00000000       0.00000000       0.00000000       0.18671207
Sn       0.00000000       0.00000000       4.98686869       0.00000000       0.00000000      -0.18671207
2
Properties=species:S:1:pos:R:3:forces:R:3 energy=-1.482979932866012 pbc="F F F"
Sn       0.00000000       0.00000000       0.00000000       0.00000000       0.00000000       0.15822087
Sn       0.00000000       0.00000000       5.04646465       0.00000000       0.00000000      -0.15822087
2
Properties=species:S:1:pos:R:3:forces:R:3 energy=-1.4740868171181807 pbc="F F F"
Sn       0.00000000       0.00000000       0.00000000       0.00000000       0.00000000       0.14224128
Sn       0.00000000       0.00000000       5.10606061       0.00000000       0.00000000      -0.14224128
2
Properties=species:S:1:pos:R:3:forces:R:3 energy=-1.4658125657699628 pbc="F F F"
Sn       0.00000000       0.00000000       0.00000000       0.00000000       0.00000000       0.13680415
Sn       0.00000000       0.00000000       5.16565657       0.00000000       0.00000000      -0.13680415
2
Properties=species:S:1:pos:R:3:forces:R:3 energy=-1.457678799382397 pbc="F F F"
Sn       0.00000000       0.00000000       0.00000000       0.00000000       0.00000000       0.13639089
Sn       0.00000000       0.00000000       5.22525253       0.00000000       0.00000000      -0.13639089
2
Properties=species:S:1:pos:R:3:forces:R:3 energy=-1.4496053946580807 pbc="F F F"
Sn       0.00000000       0.00000000       0.00000000       0.00000000       0.00000000       0.13365184
Sn       0.00000000       0.00000000       5.28484848       0.00000000       0.00000000      -0.13365184
2
Properties=species:S:1:pos:R:3:forces:R:3 energy=-1.4418584501702574 pbc="F F F"
Sn       0.00000000       0.00000000       0.00000000       0.00000000       0.00000000       0.12588337
Sn       0.00000000       0.00000000       5.34444444       0.00000000       0.00000000      -0.12588337
2
Properties=species:S:1:pos:R:3:forces:R:3 energy=-1.4345028408752456 pbc="F F F"
Sn       0.00000000       0.00000000       0.00000000       0.00000000       0.00000000       0.12326375
Sn       0.00000000       0.00000000       5.40404040       0.00000000       0.00000000      -0.12326375
2
Properties=species:S:1:pos:R:3:forces:R:3 energy=-1.42681136577231 pbc="F F F"
Sn       0.00000000       0.00000000       0.00000000       0.00000000       0.00000000       0.13707890
Sn       0.00000000       0.00000000       5.46363636       0.00000000       0.00000000      -0.13707890
2
Properties=species:S:1:pos:R:3:forces:R:3 energy=-1.418207233969874 pbc="F F F"
Sn       0.00000000       0.00000000       0.00000000       0.00000000       0.00000000       0.14871939
Sn       0.00000000       0.00000000       5.52323232       0.00000000       0.00000000      -0.14871939
2
Properties=species:S:1:pos:R:3:forces:R:3 energy=-1.4095727822800714 pbc="F F F"
Sn       0.00000000       0.00000000       0.00000000       0.00000000       0.00000000       0.13760678
Sn       0.00000000       0.00000000       5.58282828       0.00000000       0.00000000      -0.13760678
2
Properties=species:S:1:pos:R:3:forces:R:3 energy=-1.4019428348672718 pbc="F F F"
Sn       0.00000000       0.00000000       0.00000000       0.00000000       0.00000000       0.11984792
Sn       0.00000000       0.00000000       5.64242424       0.00000000       0.00000000      -0.11984792
2
Properties=species:S:1:pos:R:3:forces:R:3 energy=-1.3949046313982583 pbc="F F F"
Sn       0.00000000       0.00000000       0.00000000       0.00000000       0.00000000       0.12002718
Sn       0.00000000       0.00000000       5.70202020       0.00000000       0.00000000      -0.12002718
2
Properties=species:S:1:pos:R:3:forces:R:3 energy=-1.387416112867838 pbc="F F F"
Sn       0.00000000       0.00000000       0.00000000       0.00000000       0.00000000       0.13015273
Sn       0.00000000       0.00000000       5.76161616       0.00000000       0.00000000      -0.13015273
2
Properties=species:S:1:pos:R:3:forces:R:3 energy=-1.3799438209976458 pbc="F F F"
Sn       0.00000000       0.00000000       0.00000000       0.00000000       0.00000000       0.11416164
Sn       0.00000000       0.00000000       5.82121212       0.00000000       0.00000000      -0.11416164
2
Properties=species:S:1:pos:R:3:forces:R:3 energy=-1.3744098100885576 pbc="F F F"
Sn       0.00000000       0.00000000       0.00000000       0.00000000       0.00000000       0.06974478
Sn       0.00000000       0.00000000       5.88080808       0.00000000       0.00000000      -0.06974478
2
Properties=species:S:1:pos:R:3:forces:R:3 energy=-1.3715724989280154 pbc="F F F"
Sn       0.00000000       0.00000000       0.00000000       0.00000000       0.00000000       0.02744466
Sn       0.00000000       0.00000000       5.94040404       0.00000000       0.00000000      -0.02744466
2
Properties=species:S:1:pos:R:3:forces:R:3 energy=-1.370607475867075 pbc="F F F"
Sn       0.00000000       0.00000000       0.00000000       0.00000000       0.00000000       0.01052490
Sn       0.00000000       0.00000000       6.00000000       0.00000000       0.00000000      -0.01052490
