2
Properties=species:S:1:pos:R:3:forces:R:3 energy=5886.254063428229 pbc="F F F"
Sr       0.00000000       0.00000000       0.00000000       0.00000000       0.00000000  -94999.37500000
Sr       0.00000000       0.00000000       0.18000000       0.00000000       0.00000000   94999.37500000
2
Properties=species:S:1:pos:R:3:forces:R:3 energy=2475.3942001469786 pbc="F F F"
Sr       0.00000000       0.00000000       0.00000000       0.00000000       0.00000000  -33527.47265625
Sr       0.00000000       0.00000000       0.23878788       0.00000000       0.00000000   33527.47265625
2
Properties=species:S:1:pos:R:3:forces:R:3 energy=1176.8143661626036 pbc="F F F"
Sr       0.00000000       0.00000000       0.00000000       0.00000000       0.00000000  -13945.09179688
Sr       0.00000000       0.00000000       0.29757576       0.00000000       0.00000000   13945.09179688
2
Properties=species:S:1:pos:R:3:forces:R:3 energy=610.0184677251037 pbc="F F F"
Sr       0.00000000       0.00000000       0.00000000       0.00000000       0.00000000   -6430.44580078
Sr       0.00000000       0.00000000       0.35636364       0.00000000       0.00000000    6430.44580078
2
Properties=species:S:1:pos:R:3:forces:R:3 energy=339.9594467290099 pbc="F F F"
Sr       0.00000000       0.00000000       0.00000000       0.00000000       0.00000000   -3180.67358398
Sr       0.00000000       0.00000000       0.41515152       0.00000000       0.00000000    3180.67358398
2
Properties=species:S:1:pos:R:3:forces:R:3 energy=203.0695541635562 pbc="F F F"
Sr       0.00000000       0.00000000       0.00000000       0.00000000       0.00000000   -1658.74792480
Sr       0.00000000       0.00000000       0.47393939       0.00000000       0.00000000    1658.74792480
2
Properties=species:S:1:pos:R:3:forces:R:3 energy=130.21611484517283 pbc="F F F"
Sr       0.00000000       0.00000000       0.00000000       0.00000000       0.00000000    -904.17547607
Sr       0.00000000       0.00000000       0.53272727       0.00000000       0.00000000     904.17547607
2
Properties=species:S:1:pos:R:3:forces:R:3 energy=89.76833806341051 pbc="F F F"
Sr       0.00000000       0.00000000       0.00000000       0.00000000       0.00000000    -513.10290527
Sr       0.00000000       0.00000000       0.59151515       0.00000000       0.00000000     513.10290527
2
Properties=species:S:1:pos:R:3:forces:R:3 energy=66.4014252596275 pbc="F F F"
Sr       0.00000000       0.00000000       0.00000000       0.00000000       0.00000000    -302.87014771
Sr       0.00000000       0.00000000       0.65030303       0.00000000       0.00000000     302.87014771
2
Properties=species:S:1:pos:R:3:forces:R:3 energy=52.34836669238072 pbc="F F F"
Sr       0.00000000       0.00000000       0.00000000       0.00000000       0.00000000    -186.34956360
Sr       0.00000000       0.00000000       0.70909091       0.00000000       0.00000000     186.34956360
2
Properties=species:S:1:pos:R:3:forces:R:3 energy=43.51677421492965 pbc="F F F"
Sr       0.00000000       0.00000000       0.00000000       0.00000000       0.00000000    -120.21212006
Sr       0.00000000       0.00000000       0.76787879       0.00000000       0.00000000     120.21212006
2
Properties=species:S:1:pos:R:3:forces:R:3 energy=37.67078510167632 pbc="F F F"
Sr       0.00000000       0.00000000       0.00000000       0.00000000       0.00000000     -82.14296722
Sr       0.00000000       0.00000000       0.82666667       0.00000000       0.00000000      82.14296722
2
Properties=species:S:1:pos:R:3:forces:R:3 energy=33.5439008122895 pbc="F F F"
Sr       0.00000000       0.00000000       0.00000000       0.00000000       0.00000000     -60.31428528
Sr       0.00000000       0.00000000       0.88545455       0.00000000       0.00000000      60.31428528
2
Properties=species:S:1:pos:R:3:forces:R:3 energy=30.387221905937242 pbc="F F F"
Sr       0.00000000       0.00000000       0.00000000       0.00000000       0.00000000     -48.38732147
Sr       0.00000000       0.00000000       0.94424242       0.00000000       0.00000000      48.38732147
2
Properties=species:S:1:pos:R:3:forces:R:3 energy=27.725789956484107 pbc="F F F"
Sr       0.00000000       0.00000000       0.00000000       0.00000000       0.00000000     -43.09416580
Sr       0.00000000       0.00000000       1.00303030       0.00000000       0.00000000      43.09416580
2
Properties=species:S:1:pos:R:3:forces:R:3 energy=25.225117105911824 pbc="F F F"
Sr       0.00000000       0.00000000       0.00000000       0.00000000       0.00000000     -42.63802719
Sr       0.00000000       0.00000000       1.06181818       0.00000000       0.00000000      42.63802719
2
Properties=species:S:1:pos:R:3:forces:R:3 energy=22.66777134479696 pbc="F F F"
Sr       0.00000000       0.00000000       0.00000000       0.00000000       0.00000000     -44.34728241
Sr       0.00000000       0.00000000       1.12060606       0.00000000       0.00000000      44.34728241
2
Properties=species:S:1:pos:R:3:forces:R:3 energy=20.068454573422027 pbc="F F F"
Sr       0.00000000       0.00000000       0.00000000       0.00000000       0.00000000     -43.26432037
Sr       0.00000000       0.00000000       1.17939394       0.00000000       0.00000000      43.26432037
2
Properties=species:S:1:pos:R:3:forces:R:3 energy=17.666813722415057 pbc="F F F"
Sr       0.00000000       0.00000000       0.00000000       0.00000000       0.00000000     -37.96251297
Sr       0.00000000       0.00000000       1.23818182       0.00000000       0.00000000      37.96251297
2
Properties=species:S:1:pos:R:3:forces:R:3 energy=15.640085405803681 pbc="F F F"
Sr       0.00000000       0.00000000       0.00000000       0.00000000       0.00000000     -30.81331062
Sr       0.00000000       0.00000000       1.29696970       0.00000000       0.00000000      30.81331062
2
Properties=species:S:1:pos:R:3:forces:R:3 energy=14.042760742706454 pbc="F F F"
Sr       0.00000000       0.00000000       0.00000000       0.00000000       0.00000000     -23.74160194
Sr       0.00000000       0.00000000       1.35575758       0.00000000       0.00000000      23.74160194
2
Properties=species:S:1:pos:R:3:forces:R:3 energy=12.812096603193488 pbc="F F F"
Sr       0.00000000       0.00000000       0.00000000       0.00000000       0.00000000     -18.45061493
Sr       0.00000000       0.00000000       1.41454545       0.00000000       0.00000000      18.45061493
2
Properties=species:S:1:pos:R:3:forces:R:3 energy=11.835116982738123 pbc="F F F"
Sr       0.00000000       0.00000000       0.00000000       0.00000000       0.00000000     -15.15948772
Sr       0.00000000       0.00000000       1.47333333       0.00000000       0.00000000      15.15948772
2
Properties=species:S:1:pos:R:3:forces:R:3 energy=10.981719844124823 pbc="F F F"
Sr       0.00000000       0.00000000       0.00000000       0.00000000       0.00000000     -14.22472954
Sr       0.00000000       0.00000000       1.53212121       0.00000000       0.00000000      14.22472954
2
Properties=species:S:1:pos:R:3:forces:R:3 energy=10.145581080190796 pbc="F F F"
Sr       0.00000000       0.00000000       0.00000000       0.00000000       0.00000000     -14.13712883
Sr       0.00000000       0.00000000       1.59090909       0.00000000       0.00000000      14.13712883
2
Properties=species:S:1:pos:R:3:forces:R:3 energy=9.344331388400684 pbc="F F F"
Sr       0.00000000       0.00000000       0.00000000       0.00000000       0.00000000     -12.88849354
Sr       0.00000000       0.00000000       1.64969697       0.00000000       0.00000000      12.88849354
2
Properties=species:S:1:pos:R:3:forces:R:3 energy=8.648476056686222 pbc="F F F"
Sr       0.00000000       0.00000000       0.00000000       0.00000000       0.00000000     -10.72008133
Sr       0.00000000       0.00000000       1.70848485       0.00000000       0.00000000      10.72008133
2
Properties=species:S:1:pos:R:3:forces:R:3 energy=8.083610902080897 pbc="F F F"
Sr       0.00000000       0.00000000       0.00000000       0.00000000       0.00000000      -8.54930687
Sr       0.00000000       0.00000000       1.76727273       0.00000000       0.00000000       8.54930687
2
Properties=species:S:1:pos:R:3:forces:R:3 energy=7.63273161208407 pbc="F F F"
Sr       0.00000000       0.00000000       0.00000000       0.00000000       0.00000000      -6.91421223
Sr       0.00000000       0.00000000       1.82606061       0.00000000       0.00000000       6.91421223
2
Properties=species:S:1:pos:R:3:forces:R:3 energy=7.2529793056471 pbc="F F F"
Sr       0.00000000       0.00000000       0.00000000       0.00000000       0.00000000      -6.17100143
Sr       0.00000000       0.00000000       1.88484848       0.00000000       0.00000000       6.17100143
2
Properties=species:S:1:pos:R:3:forces:R:3 energy=6.888338248866073 pbc="F F F"
Sr       0.00000000       0.00000000       0.00000000       0.00000000       0.00000000      -6.37495041
Sr       0.00000000       0.00000000       1.94363636       0.00000000       0.00000000       6.37495041
2
Properties=species:S:1:pos:R:3:forces:R:3 energy=6.490924218231555 pbc="F F F"
Sr       0.00000000       0.00000000       0.00000000       0.00000000       0.00000000      -7.21322298
Sr       0.00000000       0.00000000       2.00242424       0.00000000       0.00000000       7.21322298
2
Properties=species:S:1:pos:R:3:forces:R:3 energy=6.036674852661847 pbc="F F F"
Sr       0.00000000       0.00000000       0.00000000       0.00000000       0.00000000      -8.23794079
Sr       0.00000000       0.00000000       2.06121212       0.00000000       0.00000000       8.23794079
2
Properties=species:S:1:pos:R:3:forces:R:3 energy=5.525479836382816 pbc="F F F"
Sr       0.00000000       0.00000000       0.00000000       0.00000000       0.00000000      -9.10844994
Sr       0.00000000       0.00000000       2.12000000       0.00000000       0.00000000       9.10844994
2
Properties=species:S:1:pos:R:3:forces:R:3 energy=4.972322707711246 pbc="F F F"
Sr       0.00000000       0.00000000       0.00000000       0.00000000       0.00000000      -9.64625454
Sr       0.00000000       0.00000000       2.17878788       0.00000000       0.00000000       9.64625454
2
Properties=species:S:1:pos:R:3:forces:R:3 energy=4.3993929300848205 pbc="F F F"
Sr       0.00000000       0.00000000       0.00000000       0.00000000       0.00000000      -9.77355289
Sr       0.00000000       0.00000000       2.23757576       0.00000000       0.00000000       9.77355289
2
Properties=species:S:1:pos:R:3:forces:R:3 energy=3.8315697253231744 pbc="F F F"
Sr       0.00000000       0.00000000       0.00000000       0.00000000       0.00000000      -9.47533798
Sr       0.00000000       0.00000000       2.29636364       0.00000000       0.00000000       9.47533798
2
Properties=species:S:1:pos:R:3:forces:R:3 energy=3.2926634213993875 pbc="F F F"
Sr       0.00000000       0.00000000       0.00000000       0.00000000       0.00000000      -8.80485344
Sr       0.00000000       0.00000000       2.35515152       0.00000000       0.00000000       8.80485344
2
Properties=species:S:1:pos:R:3:forces:R:3 energy=2.801390396295766 pbc="F F F"
Sr       0.00000000       0.00000000       0.00000000       0.00000000       0.00000000      -7.87727642
Sr       0.00000000       0.00000000       2.41393939       0.00000000       0.00000000       7.87727642
2
Properties=species:S:1:pos:R:3:forces:R:3 energy=2.368744894971737 pbc="F F F"
Sr       0.00000000       0.00000000       0.00000000       0.00000000       0.00000000      -6.83383512
Sr       0.00000000       0.00000000       2.47272727       0.00000000       0.00000000       6.83383512
2
Properties=species:S:1:pos:R:3:forces:R:3 energy=1.9976087761637311 pbc="F F F"
Sr       0.00000000       0.00000000       0.00000000       0.00000000       0.00000000      -5.80383921
Sr       0.00000000       0.00000000       2.53151515       0.00000000       0.00000000       5.80383921
2
Properties=species:S:1:pos:R:3:forces:R:3 energy=1.6841994474229933 pbc="F F F"
Sr       0.00000000       0.00000000       0.00000000       0.00000000       0.00000000      -4.88238001
Sr       0.00000000       0.00000000       2.59030303       0.00000000       0.00000000       4.88238001
2
Properties=species:S:1:pos:R:3:forces:R:3 energy=1.4203779953798692 pbc="F F F"
Sr       0.00000000       0.00000000       0.00000000       0.00000000       0.00000000      -4.12185907
Sr       0.00000000       0.00000000       2.64909091       0.00000000       0.00000000       4.12185907
2
Properties=species:S:1:pos:R:3:forces:R:3 energy=1.196166426940938 pbc="F F F"
Sr       0.00000000       0.00000000       0.00000000       0.00000000       0.00000000      -3.53380656
Sr       0.00000000       0.00000000       2.70787879       0.00000000       0.00000000       3.53380656
2
Properties=species:S:1:pos:R:3:forces:R:3 energy=1.0018812656500573 pbc="F F F"
Sr       0.00000000       0.00000000       0.00000000       0.00000000       0.00000000      -3.09858942
Sr       0.00000000       0.00000000       2.76666667       0.00000000       0.00000000       3.09858942
2
Properties=species:S:1:pos:R:3:forces:R:3 energy=0.8295742860674971 pbc="F F F"
Sr       0.00000000       0.00000000       0.00000000       0.00000000       0.00000000      -2.77923536
Sr       0.00000000       0.00000000       2.82545455       0.00000000       0.00000000       2.77923536
2
Properties=species:S:1:pos:R:3:forces:R:3 energy=0.6736531109956978 pbc="F F F"
Sr       0.00000000       0.00000000       0.00000000       0.00000000       0.00000000      -2.53441572
Sr       0.00000000       0.00000000       2.88424242       0.00000000       0.00000000       2.53441572
2
Properties=species:S:1:pos:R:3:forces:R:3 energy=0.5308535485884499 pbc="F F F"
Sr       0.00000000       0.00000000       0.00000000       0.00000000       0.00000000      -2.32744336
Sr       0.00000000       0.00000000       2.94303030       0.00000000       0.00000000       2.32744336
2
Properties=species:S:1:pos:R:3:forces:R:3 energy=0.39979946673412237 pbc="F F F"
Sr       0.00000000       0.00000000       0.00000000       0.00000000       0.00000000      -2.13124609
Sr       0.00000000       0.00000000       3.00181818       0.00000000       0.00000000       2.13124609
2
Properties=species:S:1:pos:R:3:forces:R:3 energy=0.28036564591354235 pbc="F F F"
Sr       0.00000000       0.00000000       0.00000000       0.00000000       0.00000000      -1.93067515
Sr       0.00000000       0.00000000       3.06060606       0.00000000       0.00000000       1.93067515
2
Properties=species:S:1:pos:R:3:forces:R:3 energy=0.1729468551926538 pbc="F F F"
Sr       0.00000000       0.00000000       0.00000000       0.00000000       0.00000000      -1.72291243
Sr       0.00000000       0.00000000       3.11939394       0.00000000       0.00000000       1.72291243
2
Properties=species:S:1:pos:R:3:forces:R:3 energy=0.07779141704299677 pbc="F F F"
Sr       0.00000000       0.00000000       0.00000000       0.00000000       0.00000000      -1.51536405
Sr       0.00000000       0.00000000       3.17818182       0.00000000       0.00000000       1.51536405
2
Properties=species:S:1:pos:R:3:forces:R:3 energy=-0.005475629002516677 pbc="F F F"
Sr       0.00000000       0.00000000       0.00000000       0.00000000       0.00000000      -1.32067990
Sr       0.00000000       0.00000000       3.23696970       0.00000000       0.00000000       1.32067990
2
Properties=species:S:1:pos:R:3:forces:R:3 energy=-0.07797383604795062 pbc="F F F"
Sr       0.00000000       0.00000000       0.00000000       0.00000000       0.00000000      -1.15055013
Sr       0.00000000       0.00000000       3.29575758       0.00000000       0.00000000       1.15055013
2
Properties=species:S:1:pos:R:3:forces:R:3 energy=-0.1413525362960239 pbc="F F F"
Sr       0.00000000       0.00000000       0.00000000       0.00000000       0.00000000      -1.01078475
Sr       0.00000000       0.00000000       3.35454545       0.00000000       0.00000000       1.01078475
2
Properties=species:S:1:pos:R:3:forces:R:3 energy=-0.19738065229767396 pbc="F F F"
Sr       0.00000000       0.00000000       0.00000000       0.00000000       0.00000000      -0.89954132
Sr       0.00000000       0.00000000       3.41333333       0.00000000       0.00000000       0.89954132
2
Properties=species:S:1:pos:R:3:forces:R:3 energy=-0.2475211697125522 pbc="F F F"
Sr       0.00000000       0.00000000       0.00000000       0.00000000       0.00000000      -0.80882323
Sr       0.00000000       0.00000000       3.47212121       0.00000000       0.00000000       0.80882323
2
Properties=species:S:1:pos:R:3:forces:R:3 energy=-0.29267407631534836 pbc="F F F"
Sr       0.00000000       0.00000000       0.00000000       0.00000000       0.00000000      -0.72814620
Sr       0.00000000       0.00000000       3.53090909       0.00000000       0.00000000       0.72814620
2
Properties=species:S:1:pos:R:3:forces:R:3 energy=-0.33315390018563457 pbc="F F F"
Sr       0.00000000       0.00000000       0.00000000       0.00000000       0.00000000      -0.64866263
Sr       0.00000000       0.00000000       3.58969697       0.00000000       0.00000000       0.64866263
2
Properties=species:S:1:pos:R:3:forces:R:3 energy=-0.36887646887241987 pbc="F F F"
Sr       0.00000000       0.00000000       0.00000000       0.00000000       0.00000000      -0.56608146
Sr       0.00000000       0.00000000       3.64848485       0.00000000       0.00000000       0.56608146
2
Properties=species:S:1:pos:R:3:forces:R:3 energy=-0.3996639471010879 pbc="F F F"
Sr       0.00000000       0.00000000       0.00000000       0.00000000       0.00000000      -0.48123530
Sr       0.00000000       0.00000000       3.70727273       0.00000000       0.00000000       0.48123530
2
Properties=species:S:1:pos:R:3:forces:R:3 energy=-0.42549558661228615 pbc="F F F"
Sr       0.00000000       0.00000000       0.00000000       0.00000000       0.00000000      -0.39828512
Sr       0.00000000       0.00000000       3.76606061       0.00000000       0.00000000       0.39828512
2
Properties=species:S:1:pos:R:3:forces:R:3 energy=-0.4466203860901745 pbc="F F F"
Sr       0.00000000       0.00000000       0.00000000       0.00000000       0.00000000      -0.32177222
Sr       0.00000000       0.00000000       3.82484848       0.00000000       0.00000000       0.32177222
2
Properties=species:S:1:pos:R:3:forces:R:3 energy=-0.46350709033317594 pbc="F F F"
Sr       0.00000000       0.00000000       0.00000000       0.00000000       0.00000000      -0.25430536
Sr       0.00000000       0.00000000       3.88363636       0.00000000       0.00000000       0.25430536
2
Properties=species:S:1:pos:R:3:forces:R:3 energy=-0.47670224164892844 pbc="F F F"
Sr       0.00000000       0.00000000       0.00000000       0.00000000       0.00000000      -0.19606572
Sr       0.00000000       0.00000000       3.94242424       0.00000000       0.00000000       0.19606572
2
Properties=species:S:1:pos:R:3:forces:R:3 energy=-0.486716231237462 pbc="F F F"
Sr       0.00000000       0.00000000       0.00000000       0.00000000       0.00000000      -0.14583991
Sr       0.00000000       0.00000000       4.00121212       0.00000000       0.00000000       0.14583991
2
Properties=species:S:1:pos:R:3:forces:R:3 energy=-0.49398418877006284 pbc="F F F"
Sr       0.00000000       0.00000000       0.00000000       0.00000000       0.00000000      -0.10251688
Sr       0.00000000       0.00000000       4.06000000       0.00000000       0.00000000       0.10251688
2
Properties=species:S:1:pos:R:3:forces:R:3 energy=-0.49890154784473467 pbc="F F F"
Sr       0.00000000       0.00000000       0.00000000       0.00000000       0.00000000      -0.06594478
Sr       0.00000000       0.00000000       4.11878788       0.00000000       0.00000000       0.06594478
2
Properties=species:S:1:pos:R:3:forces:R:3 energy=-0.501883279548902 pbc="F F F"
Sr       0.00000000       0.00000000       0.00000000       0.00000000       0.00000000      -0.03680333
Sr       0.00000000       0.00000000       4.17757576       0.00000000       0.00000000       0.03680333
2
Properties=species:S:1:pos:R:3:forces:R:3 energy=-0.5033874881862919 pbc="F F F"
Sr       0.00000000       0.00000000       0.00000000       0.00000000       0.00000000      -0.01572807
Sr       0.00000000       0.00000000       4.23636364       0.00000000       0.00000000       0.01572807
2
Properties=species:S:1:pos:R:3:forces:R:3 energy=-0.5038803455019605 pbc="F F F"
Sr       0.00000000       0.00000000       0.00000000       0.00000000       0.00000000      -0.00211688
Sr       0.00000000       0.00000000       4.29515152       0.00000000       0.00000000       0.00211688
2
Properties=species:S:1:pos:R:3:forces:R:3 energy=-0.5037300989422437 pbc="F F F"
Sr       0.00000000       0.00000000       0.00000000       0.00000000       0.00000000       0.00679316
Sr       0.00000000       0.00000000       4.35393939       0.00000000       0.00000000      -0.00679316
2
Properties=species:S:1:pos:R:3:forces:R:3 energy=-0.5030818330038318 pbc="F F F"
Sr       0.00000000       0.00000000       0.00000000       0.00000000       0.00000000       0.01568963
Sr       0.00000000       0.00000000       4.41272727       0.00000000       0.00000000      -0.01568963
2
Properties=species:S:1:pos:R:3:forces:R:3 energy=-0.5017930935810687 pbc="F F F"
Sr       0.00000000       0.00000000       0.00000000       0.00000000       0.00000000       0.02920864
Sr       0.00000000       0.00000000       4.47151515       0.00000000       0.00000000      -0.02920864
2
Properties=species:S:1:pos:R:3:forces:R:3 energy=-0.49951333669106135 pbc="F F F"
Sr       0.00000000       0.00000000       0.00000000       0.00000000       0.00000000       0.04945898
Sr       0.00000000       0.00000000       4.53030303       0.00000000       0.00000000      -0.04945898
2
Properties=species:S:1:pos:R:3:forces:R:3 energy=-0.4958645142368068 pbc="F F F"
Sr       0.00000000       0.00000000       0.00000000       0.00000000       0.00000000       0.07544464
Sr       0.00000000       0.00000000       4.58909091       0.00000000       0.00000000      -0.07544464
2
Properties=species:S:1:pos:R:3:forces:R:3 energy=-0.49058009858955975 pbc="F F F"
Sr       0.00000000       0.00000000       0.00000000       0.00000000       0.00000000       0.10465743
Sr       0.00000000       0.00000000       4.64787879       0.00000000       0.00000000      -0.10465743
2
Properties=species:S:1:pos:R:3:forces:R:3 energy=-0.48354214362155723 pbc="F F F"
Sr       0.00000000       0.00000000       0.00000000       0.00000000       0.00000000       0.13476539
Sr       0.00000000       0.00000000       4.70666667       0.00000000       0.00000000      -0.13476539
2
Properties=species:S:1:pos:R:3:forces:R:3 energy=-0.4747490115599671 pbc="F F F"
Sr       0.00000000       0.00000000       0.00000000       0.00000000       0.00000000       0.16416495
Sr       0.00000000       0.00000000       4.76545455       0.00000000       0.00000000      -0.16416495
2
Properties=species:S:1:pos:R:3:forces:R:3 energy=-0.4642746552688231 pbc="F F F"
Sr       0.00000000       0.00000000       0.00000000       0.00000000       0.00000000       0.19181585
Sr       0.00000000       0.00000000       4.82424242       0.00000000       0.00000000      -0.19181585
2
Properties=species:S:1:pos:R:3:forces:R:3 energy=-0.45224489799465845 pbc="F F F"
Sr       0.00000000       0.00000000       0.00000000       0.00000000       0.00000000       0.21703869
Sr       0.00000000       0.00000000       4.88303030       0.00000000       0.00000000      -0.21703869
2
Properties=species:S:1:pos:R:3:forces:R:3 energy=-0.43880957156504496 pbc="F F F"
Sr       0.00000000       0.00000000       0.00000000       0.00000000       0.00000000       0.23956059
Sr       0.00000000       0.00000000       4.94181818       0.00000000       0.00000000      -0.23956059
2
Properties=species:S:1:pos:R:3:forces:R:3 energy=-0.42412541969504314 pbc="F F F"
Sr       0.00000000       0.00000000       0.00000000       0.00000000       0.00000000       0.25963205
Sr       0.00000000       0.00000000       5.00060606       0.00000000       0.00000000      -0.25963205
2
Properties=species:S:1:pos:R:3:forces:R:3 energy=-0.40831385591776365 pbc="F F F"
Sr       0.00000000       0.00000000       0.00000000       0.00000000       0.00000000       0.27811834
Sr       0.00000000       0.00000000       5.05939394       0.00000000       0.00000000      -0.27811834
2
Properties=species:S:1:pos:R:3:forces:R:3 energy=-0.39143328522313947 pbc="F F F"
Sr       0.00000000       0.00000000       0.00000000       0.00000000       0.00000000       0.29616892
Sr       0.00000000       0.00000000       5.11818182       0.00000000       0.00000000      -0.29616892
2
Properties=species:S:1:pos:R:3:forces:R:3 energy=-0.3734937377388336 pbc="F F F"
Sr       0.00000000       0.00000000       0.00000000       0.00000000       0.00000000       0.31405789
Sr       0.00000000       0.00000000       5.17696970       0.00000000       0.00000000      -0.31405789
2
Properties=species:S:1:pos:R:3:forces:R:3 energy=-0.3545617751333116 pbc="F F F"
Sr       0.00000000       0.00000000       0.00000000       0.00000000       0.00000000       0.32912427
Sr       0.00000000       0.00000000       5.23575758       0.00000000       0.00000000      -0.32912427
2
Properties=species:S:1:pos:R:3:forces:R:3 energy=-0.3349738114260841 pbc="F F F"
Sr       0.00000000       0.00000000       0.00000000       0.00000000       0.00000000       0.33531097
Sr       0.00000000       0.00000000       5.29454545       0.00000000       0.00000000      -0.33531097
2
Properties=species:S:1:pos:R:3:forces:R:3 energy=-0.3153664697670626 pbc="F F F"
Sr       0.00000000       0.00000000       0.00000000       0.00000000       0.00000000       0.33036047
Sr       0.00000000       0.00000000       5.35333333       0.00000000       0.00000000      -0.33036047
2
Properties=species:S:1:pos:R:3:forces:R:3 energy=-0.29611624253297175 pbc="F F F"
Sr       0.00000000       0.00000000       0.00000000       0.00000000       0.00000000       0.32624048
Sr       0.00000000       0.00000000       5.41212121       0.00000000       0.00000000      -0.32624048
2
Properties=species:S:1:pos:R:3:forces:R:3 energy=-0.2767042204216775 pbc="F F F"
Sr       0.00000000       0.00000000       0.00000000       0.00000000       0.00000000       0.33648065
Sr       0.00000000       0.00000000       5.47090909       0.00000000       0.00000000      -0.33648065
2
Properties=species:S:1:pos:R:3:forces:R:3 energy=-0.2565389753830867 pbc="F F F"
Sr       0.00000000       0.00000000       0.00000000       0.00000000       0.00000000       0.34682173
Sr       0.00000000       0.00000000       5.52969697       0.00000000       0.00000000      -0.34682173
2
Properties=species:S:1:pos:R:3:forces:R:3 energy=-0.23644661338208833 pbc="F F F"
Sr       0.00000000       0.00000000       0.00000000       0.00000000       0.00000000       0.33243284
Sr       0.00000000       0.00000000       5.58848485       0.00000000       0.00000000      -0.33243284
2
Properties=species:S:1:pos:R:3:forces:R:3 energy=-0.21759486829881042 pbc="F F F"
Sr       0.00000000       0.00000000       0.00000000       0.00000000       0.00000000       0.31233376
Sr       0.00000000       0.00000000       5.64727273       0.00000000       0.00000000      -0.31233376
2
Properties=species:S:1:pos:R:3:forces:R:3 energy=-0.19876906747809706 pbc="F F F"
Sr       0.00000000       0.00000000       0.00000000       0.00000000       0.00000000       0.33959720
Sr       0.00000000       0.00000000       5.70606061       0.00000000       0.00000000      -0.33959720
2
Properties=species:S:1:pos:R:3:forces:R:3 energy=-0.17662406647579132 pbc="F F F"
Sr       0.00000000       0.00000000       0.00000000       0.00000000       0.00000000       0.41336355
Sr       0.00000000       0.00000000       5.76484848       0.00000000       0.00000000      -0.41336355
2
Properties=species:S:1:pos:R:3:forces:R:3 energy=-0.1515315407389327 pbc="F F F"
Sr       0.00000000       0.00000000       0.00000000       0.00000000       0.00000000       0.41891220
Sr       0.00000000       0.00000000       5.82363636       0.00000000       0.00000000      -0.41891220
2
Properties=species:S:1:pos:R:3:forces:R:3 energy=-0.13035006296339596 pbc="F F F"
Sr       0.00000000       0.00000000       0.00000000       0.00000000       0.00000000       0.28416342
Sr       0.00000000       0.00000000       5.88242424       0.00000000       0.00000000      -0.28416342
2
Properties=species:S:1:pos:R:3:forces:R:3 energy=-0.11884799379945057 pbc="F F F"
Sr       0.00000000       0.00000000       0.00000000       0.00000000       0.00000000       0.11278079
Sr       0.00000000       0.00000000       5.94121212       0.00000000       0.00000000      -0.11278079
2
Properties=species:S:1:pos:R:3:forces:R:3 energy=-0.11504953933002832 pbc="F F F"
Sr       0.00000000       0.00000000       0.00000000       0.00000000       0.00000000       0.04012058
Sr       0.00000000       0.00000000       6.00000000       0.00000000       0.00000000      -0.04012058
