2
Properties=species:S:1:pos:R:3:forces:R:3 energy=9354.964434637148 pbc="F F F"
Te       0.00000000       0.00000000       0.00000000       0.00000000       0.00000000 -153256.06250000
Te       0.00000000       0.00000000       0.18000000       0.00000000       0.00000000  153256.06250000
2
Properties=species:S:1:pos:R:3:forces:R:3 energy=3920.8194151058983 pbc="F F F"
Te       0.00000000       0.00000000       0.00000000       0.00000000       0.00000000  -52501.71093750
Te       0.00000000       0.00000000       0.23878788       0.00000000       0.00000000   52501.71093750
2
Properties=species:S:1:pos:R:3:forces:R:3 energy=1912.8179502621483 pbc="F F F"
Te       0.00000000       0.00000000       0.00000000       0.00000000       0.00000000  -21193.85156250
Te       0.00000000       0.00000000       0.29757576       0.00000000       0.00000000   21193.85156250
2
Properties=species:S:1:pos:R:3:forces:R:3 energy=1062.959307687191 pbc="F F F"
Te       0.00000000       0.00000000       0.00000000       0.00000000       0.00000000   -9472.89550781
Te       0.00000000       0.00000000       0.35636364       0.00000000       0.00000000    9472.89550781
2
Properties=species:S:1:pos:R:3:forces:R:3 energy=670.5002012482142 pbc="F F F"
Te       0.00000000       0.00000000       0.00000000       0.00000000       0.00000000   -4544.78222656
Te       0.00000000       0.00000000       0.41515152       0.00000000       0.00000000    4544.78222656
2
Properties=species:S:1:pos:R:3:forces:R:3 energy=477.3149900855806 pbc="F F F"
Te       0.00000000       0.00000000       0.00000000       0.00000000       0.00000000   -2307.24511719
Te       0.00000000       0.00000000       0.47393939       0.00000000       0.00000000    2307.24511719
2
Properties=species:S:1:pos:R:3:forces:R:3 energy=376.9022093523722 pbc="F F F"
Te       0.00000000       0.00000000       0.00000000       0.00000000       0.00000000   -1235.29394531
Te       0.00000000       0.00000000       0.53272727       0.00000000       0.00000000    1235.29394531
2
Properties=species:S:1:pos:R:3:forces:R:3 energy=321.7447081855221 pbc="F F F"
Te       0.00000000       0.00000000       0.00000000       0.00000000       0.00000000    -701.90185547
Te       0.00000000       0.00000000       0.59151515       0.00000000       0.00000000     701.90185547
2
Properties=species:S:1:pos:R:3:forces:R:3 energy=286.5773803901939 pbc="F F F"
Te       0.00000000       0.00000000       0.00000000       0.00000000       0.00000000    -523.01629639
Te       0.00000000       0.00000000       0.65030303       0.00000000       0.00000000     523.01629639
2
Properties=species:S:1:pos:R:3:forces:R:3 energy=259.6494630459415 pbc="F F F"
Te       0.00000000       0.00000000       0.00000000       0.00000000       0.00000000    -412.18185425
Te       0.00000000       0.00000000       0.70909091       0.00000000       0.00000000     412.18185425
2
Properties=species:S:1:pos:R:3:forces:R:3 energy=236.4894138165412 pbc="F F F"
Te       0.00000000       0.00000000       0.00000000       0.00000000       0.00000000    -388.17474365
Te       0.00000000       0.00000000       0.76787879       0.00000000       0.00000000     388.17474365
2
Properties=species:S:1:pos:R:3:forces:R:3 energy=212.67917242143338 pbc="F F F"
Te       0.00000000       0.00000000       0.00000000       0.00000000       0.00000000    -423.45999146
Te       0.00000000       0.00000000       0.82666667       0.00000000       0.00000000     423.45999146
2
Properties=species:S:1:pos:R:3:forces:R:3 energy=186.97942005097565 pbc="F F F"
Te       0.00000000       0.00000000       0.00000000       0.00000000       0.00000000    -447.99368286
Te       0.00000000       0.00000000       0.88545455       0.00000000       0.00000000     447.99368286
2
Properties=species:S:1:pos:R:3:forces:R:3 energy=160.55612660131814 pbc="F F F"
Te       0.00000000       0.00000000       0.00000000       0.00000000       0.00000000    -445.81213379
Te       0.00000000       0.00000000       0.94424242       0.00000000       0.00000000     445.81213379
2
Properties=species:S:1:pos:R:3:forces:R:3 energy=134.84061231040792 pbc="F F F"
Te       0.00000000       0.00000000       0.00000000       0.00000000       0.00000000    -452.11172485
Te       0.00000000       0.00000000       1.00303030       0.00000000       0.00000000     452.11172485
2
Properties=species:S:1:pos:R:3:forces:R:3 energy=110.15838536244499 pbc="F F F"
Te       0.00000000       0.00000000       0.00000000       0.00000000       0.00000000    -384.37356567
Te       0.00000000       0.00000000       1.06181818       0.00000000       0.00000000     384.37356567
2
Properties=species:S:1:pos:R:3:forces:R:3 energy=89.66783206709366 pbc="F F F"
Te       0.00000000       0.00000000       0.00000000       0.00000000       0.00000000    -313.08840942
Te       0.00000000       0.00000000       1.12060606       0.00000000       0.00000000     313.08840942
2
Properties=species:S:1:pos:R:3:forces:R:3 energy=73.23655200669329 pbc="F F F"
Te       0.00000000       0.00000000       0.00000000       0.00000000       0.00000000    -248.17535400
Te       0.00000000       0.00000000       1.17939394       0.00000000       0.00000000     248.17535400
2
Properties=species:S:1:pos:R:3:forces:R:3 energy=60.032102057980794 pbc="F F F"
Te       0.00000000       0.00000000       0.00000000       0.00000000       0.00000000    -205.11753845
Te       0.00000000       0.00000000       1.23818182       0.00000000       0.00000000     205.11753845
2
Properties=species:S:1:pos:R:3:forces:R:3 energy=48.83784951098712 pbc="F F F"
Te       0.00000000       0.00000000       0.00000000       0.00000000       0.00000000    -176.66236877
Te       0.00000000       0.00000000       1.29696970       0.00000000       0.00000000     176.66236877
2
Properties=species:S:1:pos:R:3:forces:R:3 energy=39.20061229730874 pbc="F F F"
Te       0.00000000       0.00000000       0.00000000       0.00000000       0.00000000    -151.65948486
Te       0.00000000       0.00000000       1.35575758       0.00000000       0.00000000     151.65948486
2
Properties=species:S:1:pos:R:3:forces:R:3 energy=30.957747174397806 pbc="F F F"
Te       0.00000000       0.00000000       0.00000000       0.00000000       0.00000000    -128.97882080
Te       0.00000000       0.00000000       1.41454545       0.00000000       0.00000000     128.97882080
2
Properties=species:S:1:pos:R:3:forces:R:3 energy=24.03222033574161 pbc="F F F"
Te       0.00000000       0.00000000       0.00000000       0.00000000       0.00000000    -106.71710968
Te       0.00000000       0.00000000       1.47333333       0.00000000       0.00000000     106.71710968
2
Properties=species:S:1:pos:R:3:forces:R:3 energy=18.364829846887698 pbc="F F F"
Te       0.00000000       0.00000000       0.00000000       0.00000000       0.00000000     -86.71383667
Te       0.00000000       0.00000000       1.53212121       0.00000000       0.00000000      86.71383667
2
Properties=species:S:1:pos:R:3:forces:R:3 energy=13.766161943244466 pbc="F F F"
Te       0.00000000       0.00000000       0.00000000       0.00000000       0.00000000     -70.21575928
Te       0.00000000       0.00000000       1.59090909       0.00000000       0.00000000      70.21575928
2
Properties=species:S:1:pos:R:3:forces:R:3 energy=10.064126427037728 pbc="F F F"
Te       0.00000000       0.00000000       0.00000000       0.00000000       0.00000000     -56.07059479
Te       0.00000000       0.00000000       1.64969697       0.00000000       0.00000000      56.07059479
2
Properties=species:S:1:pos:R:3:forces:R:3 energy=7.132822465680604 pbc="F F F"
Te       0.00000000       0.00000000       0.00000000       0.00000000       0.00000000     -44.01568985
Te       0.00000000       0.00000000       1.70848485       0.00000000       0.00000000      44.01568985
2
Properties=species:S:1:pos:R:3:forces:R:3 energy=4.845095024482899 pbc="F F F"
Te       0.00000000       0.00000000       0.00000000       0.00000000       0.00000000     -34.19425201
Te       0.00000000       0.00000000       1.76727273       0.00000000       0.00000000      34.19425201
2
Properties=species:S:1:pos:R:3:forces:R:3 energy=3.0677428519520378 pbc="F F F"
Te       0.00000000       0.00000000       0.00000000       0.00000000       0.00000000     -26.64694214
Te       0.00000000       0.00000000       1.82606061       0.00000000       0.00000000      26.64694214
2
Properties=species:S:1:pos:R:3:forces:R:3 energy=1.6695501356484272 pbc="F F F"
Te       0.00000000       0.00000000       0.00000000       0.00000000       0.00000000     -21.26270103
Te       0.00000000       0.00000000       1.88484848       0.00000000       0.00000000      21.26270103
2
Properties=species:S:1:pos:R:3:forces:R:3 energy=0.5313320234297599 pbc="F F F"
Te       0.00000000       0.00000000       0.00000000       0.00000000       0.00000000     -17.72808456
Te       0.00000000       0.00000000       1.94363636       0.00000000       0.00000000      17.72808456
2
Properties=species:S:1:pos:R:3:forces:R:3 energy=-0.4399551238098793 pbc="F F F"
Te       0.00000000       0.00000000       0.00000000       0.00000000       0.00000000     -15.47040749
Te       0.00000000       0.00000000       2.00242424       0.00000000       0.00000000      15.47040749
2
Properties=species:S:1:pos:R:3:forces:R:3 energy=-1.2990478182554086 pbc="F F F"
Te       0.00000000       0.00000000       0.00000000       0.00000000       0.00000000     -13.80230522
Te       0.00000000       0.00000000       2.06121212       0.00000000       0.00000000      13.80230522
2
Properties=species:S:1:pos:R:3:forces:R:3 energy=-2.063785201893722 pbc="F F F"
Te       0.00000000       0.00000000       0.00000000       0.00000000       0.00000000     -12.19747543
Te       0.00000000       0.00000000       2.12000000       0.00000000       0.00000000      12.19747543
2
Properties=species:S:1:pos:R:3:forces:R:3 energy=-2.7299579180109808 pbc="F F F"
Te       0.00000000       0.00000000       0.00000000       0.00000000       0.00000000     -10.43744087
Te       0.00000000       0.00000000       2.17878788       0.00000000       0.00000000      10.43744087
2
Properties=species:S:1:pos:R:3:forces:R:3 energy=-3.288548612141902 pbc="F F F"
Te       0.00000000       0.00000000       0.00000000       0.00000000       0.00000000      -8.55634499
Te       0.00000000       0.00000000       2.23757576       0.00000000       0.00000000       8.55634499
2
Properties=species:S:1:pos:R:3:forces:R:3 energy=-3.736233243113034 pbc="F F F"
Te       0.00000000       0.00000000       0.00000000       0.00000000       0.00000000      -6.68710423
Te       0.00000000       0.00000000       2.29636364       0.00000000       0.00000000       6.68710423
2
Properties=species:S:1:pos:R:3:forces:R:3 energy=-4.077222954929306 pbc="F F F"
Te       0.00000000       0.00000000       0.00000000       0.00000000       0.00000000      -4.93976974
Te       0.00000000       0.00000000       2.35515152       0.00000000       0.00000000       4.93976974
2
Properties=species:S:1:pos:R:3:forces:R:3 energy=-4.320385848009411 pbc="F F F"
Te       0.00000000       0.00000000       0.00000000       0.00000000       0.00000000      -3.36211181
Te       0.00000000       0.00000000       2.41393939       0.00000000       0.00000000       3.36211181
2
Properties=species:S:1:pos:R:3:forces:R:3 energy=-4.475895616414406 pbc="F F F"
Te       0.00000000       0.00000000       0.00000000       0.00000000       0.00000000      -1.95597053
Te       0.00000000       0.00000000       2.47272727       0.00000000       0.00000000       1.95597053
2
Properties=species:S:1:pos:R:3:forces:R:3 energy=-4.553455478321053 pbc="F F F"
Te       0.00000000       0.00000000       0.00000000       0.00000000       0.00000000      -0.70815599
Te       0.00000000       0.00000000       2.53151515       0.00000000       0.00000000       0.70815599
2
Properties=species:S:1:pos:R:3:forces:R:3 energy=-4.562155868640486 pbc="F F F"
Te       0.00000000       0.00000000       0.00000000       0.00000000       0.00000000       0.38609782
Te       0.00000000       0.00000000       2.59030303       0.00000000       0.00000000      -0.38609782
2
Properties=species:S:1:pos:R:3:forces:R:3 energy=-4.511325883281266 pbc="F F F"
Te       0.00000000       0.00000000       0.00000000       0.00000000       0.00000000       1.31314385
Te       0.00000000       0.00000000       2.64909091       0.00000000       0.00000000      -1.31314385
2
Properties=species:S:1:pos:R:3:forces:R:3 energy=-4.411570296934316 pbc="F F F"
Te       0.00000000       0.00000000       0.00000000       0.00000000       0.00000000       2.04603696
Te       0.00000000       0.00000000       2.70787879       0.00000000       0.00000000      -2.04603696
2
Properties=species:S:1:pos:R:3:forces:R:3 energy=-4.274951779887641 pbc="F F F"
Te       0.00000000       0.00000000       0.00000000       0.00000000       0.00000000       2.56638527
Te       0.00000000       0.00000000       2.76666667       0.00000000       0.00000000      -2.56638527
2
Properties=species:S:1:pos:R:3:forces:R:3 energy=-4.113682536059774 pbc="F F F"
Te       0.00000000       0.00000000       0.00000000       0.00000000       0.00000000       2.89140010
Te       0.00000000       0.00000000       2.82545455       0.00000000       0.00000000      -2.89140010
2
Properties=species:S:1:pos:R:3:forces:R:3 energy=-3.93770137218978 pbc="F F F"
Te       0.00000000       0.00000000       0.00000000       0.00000000       0.00000000       3.07855248
Te       0.00000000       0.00000000       2.88424242       0.00000000       0.00000000      -3.07855248
2
Properties=species:S:1:pos:R:3:forces:R:3 energy=-3.7531233600198477 pbc="F F F"
Te       0.00000000       0.00000000       0.00000000       0.00000000       0.00000000       3.19274306
Te       0.00000000       0.00000000       2.94303030       0.00000000       0.00000000      -3.19274306
2
Properties=species:S:1:pos:R:3:forces:R:3 energy=-3.5631212262646383 pbc="F F F"
Te       0.00000000       0.00000000       0.00000000       0.00000000       0.00000000       3.26404572
Te       0.00000000       0.00000000       3.00181818       0.00000000       0.00000000      -3.26404572
2
Properties=species:S:1:pos:R:3:forces:R:3 energy=-3.3704277883539566 pbc="F F F"
Te       0.00000000       0.00000000       0.00000000       0.00000000       0.00000000       3.28004956
Te       0.00000000       0.00000000       3.06060606       0.00000000       0.00000000      -3.28004956
2
Properties=species:S:1:pos:R:3:forces:R:3 energy=-3.179025571545882 pbc="F F F"
Te       0.00000000       0.00000000       0.00000000       0.00000000       0.00000000       3.21748114
Te       0.00000000       0.00000000       3.11939394       0.00000000       0.00000000      -3.21748114
2
Properties=species:S:1:pos:R:3:forces:R:3 energy=-2.9937052053692814 pbc="F F F"
Te       0.00000000       0.00000000       0.00000000       0.00000000       0.00000000       3.07545543
Te       0.00000000       0.00000000       3.17818182       0.00000000       0.00000000      -3.07545543
2
Properties=species:S:1:pos:R:3:forces:R:3 energy=-2.8184896765485945 pbc="F F F"
Te       0.00000000       0.00000000       0.00000000       0.00000000       0.00000000       2.87931609
Te       0.00000000       0.00000000       3.23696970       0.00000000       0.00000000      -2.87931609
2
Properties=species:S:1:pos:R:3:forces:R:3 energy=-2.655590749540268 pbc="F F F"
Te       0.00000000       0.00000000       0.00000000       0.00000000       0.00000000       2.66115952
Te       0.00000000       0.00000000       3.29575758       0.00000000       0.00000000      -2.66115952
2
Properties=species:S:1:pos:R:3:forces:R:3 energy=-2.5056143042860657 pbc="F F F"
Te       0.00000000       0.00000000       0.00000000       0.00000000       0.00000000       2.44184661
Te       0.00000000       0.00000000       3.35454545       0.00000000       0.00000000      -2.44184661
2
Properties=species:S:1:pos:R:3:forces:R:3 energy=-2.3683828199624966 pbc="F F F"
Te       0.00000000       0.00000000       0.00000000       0.00000000       0.00000000       2.22769284
Te       0.00000000       0.00000000       3.41333333       0.00000000       0.00000000      -2.22769284
2
Properties=species:S:1:pos:R:3:forces:R:3 energy=-2.2436186682933976 pbc="F F F"
Te       0.00000000       0.00000000       0.00000000       0.00000000       0.00000000       2.01722240
Te       0.00000000       0.00000000       3.47212121       0.00000000       0.00000000      -2.01722240
2
Properties=species:S:1:pos:R:3:forces:R:3 energy=-2.1311742461633996 pbc="F F F"
Te       0.00000000       0.00000000       0.00000000       0.00000000       0.00000000       1.80852973
Te       0.00000000       0.00000000       3.53090909       0.00000000       0.00000000      -1.80852973
2
Properties=species:S:1:pos:R:3:forces:R:3 energy=-2.030924229427107 pbc="F F F"
Te       0.00000000       0.00000000       0.00000000       0.00000000       0.00000000       1.60279703
Te       0.00000000       0.00000000       3.58969697       0.00000000       0.00000000      -1.60279703
2
Properties=species:S:1:pos:R:3:forces:R:3 energy=-1.9425834037715668 pbc="F F F"
Te       0.00000000       0.00000000       0.00000000       0.00000000       0.00000000       1.40424657
Te       0.00000000       0.00000000       3.64848485       0.00000000       0.00000000      -1.40424657
2
Properties=species:S:1:pos:R:3:forces:R:3 energy=-1.8655709173497272 pbc="F F F"
Te       0.00000000       0.00000000       0.00000000       0.00000000       0.00000000       1.21834826
Te       0.00000000       0.00000000       3.70727273       0.00000000       0.00000000      -1.21834826
2
Properties=species:S:1:pos:R:3:forces:R:3 energy=-1.7989904623600192 pbc="F F F"
Te       0.00000000       0.00000000       0.00000000       0.00000000       0.00000000       1.04998052
Te       0.00000000       0.00000000       3.76606061       0.00000000       0.00000000      -1.04998052
2
Properties=species:S:1:pos:R:3:forces:R:3 energy=-1.7417125021136999 pbc="F F F"
Te       0.00000000       0.00000000       0.00000000       0.00000000       0.00000000       0.90226692
Te       0.00000000       0.00000000       3.82484848       0.00000000       0.00000000      -0.90226692
2
Properties=species:S:1:pos:R:3:forces:R:3 energy=-1.6924787153795617 pbc="F F F"
Te       0.00000000       0.00000000       0.00000000       0.00000000       0.00000000       0.77628344
Te       0.00000000       0.00000000       3.88363636       0.00000000       0.00000000      -0.77628344
2
Properties=species:S:1:pos:R:3:forces:R:3 energy=-1.6500263031625348 pbc="F F F"
Te       0.00000000       0.00000000       0.00000000       0.00000000       0.00000000       0.67135984
Te       0.00000000       0.00000000       3.94242424       0.00000000       0.00000000      -0.67135984
2
Properties=species:S:1:pos:R:3:forces:R:3 energy=-1.6131688094341803 pbc="F F F"
Te       0.00000000       0.00000000       0.00000000       0.00000000       0.00000000       0.58555186
Te       0.00000000       0.00000000       4.00121212       0.00000000       0.00000000      -0.58555186
2
Properties=species:S:1:pos:R:3:forces:R:3 energy=-1.5808589792743268 pbc="F F F"
Te       0.00000000       0.00000000       0.00000000       0.00000000       0.00000000       0.51610982
Te       0.00000000       0.00000000       4.06000000       0.00000000       0.00000000      -0.51610982
2
Properties=species:S:1:pos:R:3:forces:R:3 energy=-1.5522288658773844 pbc="F F F"
Te       0.00000000       0.00000000       0.00000000       0.00000000       0.00000000       0.45980564
Te       0.00000000       0.00000000       4.11878788       0.00000000       0.00000000      -0.45980564
2
Properties=species:S:1:pos:R:3:forces:R:3 energy=-1.5266068964876833 pbc="F F F"
Te       0.00000000       0.00000000       0.00000000       0.00000000       0.00000000       0.41318807
Te       0.00000000       0.00000000       4.17757576       0.00000000       0.00000000      -0.41318807
2
Properties=species:S:1:pos:R:3:forces:R:3 energy=-1.5035239097236 pbc="F F F"
Te       0.00000000       0.00000000       0.00000000       0.00000000       0.00000000       0.37289891
Te       0.00000000       0.00000000       4.23636364       0.00000000       0.00000000      -0.37289891
2
Properties=species:S:1:pos:R:3:forces:R:3 energy=-1.4826958924053286 pbc="F F F"
Te       0.00000000       0.00000000       0.00000000       0.00000000       0.00000000       0.33603966
Te       0.00000000       0.00000000       4.29515152       0.00000000       0.00000000      -0.33603966
2
Properties=species:S:1:pos:R:3:forces:R:3 energy=-1.463988140740284 pbc="F F F"
Te       0.00000000       0.00000000       0.00000000       0.00000000       0.00000000       0.30054682
Te       0.00000000       0.00000000       4.35393939       0.00000000       0.00000000      -0.30054682
2
Properties=species:S:1:pos:R:3:forces:R:3 energy=-1.4473534263797854 pbc="F F F"
Te       0.00000000       0.00000000       0.00000000       0.00000000       0.00000000       0.26539502
Te       0.00000000       0.00000000       4.41272727       0.00000000       0.00000000      -0.26539502
2
Properties=species:S:1:pos:R:3:forces:R:3 energy=-1.4327776274795563 pbc="F F F"
Te       0.00000000       0.00000000       0.00000000       0.00000000       0.00000000       0.23058191
Te       0.00000000       0.00000000       4.47151515       0.00000000       0.00000000      -0.23058191
2
Properties=species:S:1:pos:R:3:forces:R:3 energy=-1.4202221209345187 pbc="F F F"
Te       0.00000000       0.00000000       0.00000000       0.00000000       0.00000000       0.19680795
Te       0.00000000       0.00000000       4.53030303       0.00000000       0.00000000      -0.19680795
2
Properties=species:S:1:pos:R:3:forces:R:3 energy=-1.4095992189295024 pbc="F F F"
Te       0.00000000       0.00000000       0.00000000       0.00000000       0.00000000       0.16500042
Te       0.00000000       0.00000000       4.58909091       0.00000000       0.00000000      -0.16500042
2
Properties=species:S:1:pos:R:3:forces:R:3 energy=-1.4007695693415476 pbc="F F F"
Te       0.00000000       0.00000000       0.00000000       0.00000000       0.00000000       0.13587974
Te       0.00000000       0.00000000       4.64787879       0.00000000       0.00000000      -0.13587974
2
Properties=species:S:1:pos:R:3:forces:R:3 energy=-1.3935648102566522 pbc="F F F"
Te       0.00000000       0.00000000       0.00000000       0.00000000       0.00000000       0.10970675
Te       0.00000000       0.00000000       4.70666667       0.00000000       0.00000000      -0.10970675
2
Properties=species:S:1:pos:R:3:forces:R:3 energy=-1.3878151267385508 pbc="F F F"
Te       0.00000000       0.00000000       0.00000000       0.00000000       0.00000000       0.08635486
Te       0.00000000       0.00000000       4.76545455       0.00000000       0.00000000      -0.08635486
2
Properties=species:S:1:pos:R:3:forces:R:3 energy=-1.3833610335414468 pbc="F F F"
Te       0.00000000       0.00000000       0.00000000       0.00000000       0.00000000       0.06559715
Te       0.00000000       0.00000000       4.82424242       0.00000000       0.00000000      -0.06559715
2
Properties=species:S:1:pos:R:3:forces:R:3 energy=-1.3800506016181313 pbc="F F F"
Te       0.00000000       0.00000000       0.00000000       0.00000000       0.00000000       0.04752595
Te       0.00000000       0.00000000       4.88303030       0.00000000       0.00000000      -0.04752595
2
Properties=species:S:1:pos:R:3:forces:R:3 energy=-1.3777077710396766 pbc="F F F"
Te       0.00000000       0.00000000       0.00000000       0.00000000       0.00000000       0.03281624
Te       0.00000000       0.00000000       4.94181818       0.00000000       0.00000000      -0.03281624
2
Properties=species:S:1:pos:R:3:forces:R:3 energy=-1.3761023878661127 pbc="F F F"
Te       0.00000000       0.00000000       0.00000000       0.00000000       0.00000000       0.02266885
Te       0.00000000       0.00000000       5.00060606       0.00000000       0.00000000      -0.02266885
2
Properties=species:S:1:pos:R:3:forces:R:3 energy=-1.3749285033039944 pbc="F F F"
Te       0.00000000       0.00000000       0.00000000       0.00000000       0.00000000       0.01830512
Te       0.00000000       0.00000000       5.05939394       0.00000000       0.00000000      -0.01830512
2
Properties=species:S:1:pos:R:3:forces:R:3 energy=-1.3738280504216027 pbc="F F F"
Te       0.00000000       0.00000000       0.00000000       0.00000000       0.00000000       0.02011243
Te       0.00000000       0.00000000       5.11818182       0.00000000       0.00000000      -0.02011243
2
Properties=species:S:1:pos:R:3:forces:R:3 energy=-1.372467716301722 pbc="F F F"
Te       0.00000000       0.00000000       0.00000000       0.00000000       0.00000000       0.02674933
Te       0.00000000       0.00000000       5.17696970       0.00000000       0.00000000      -0.02674933
2
Properties=species:S:1:pos:R:3:forces:R:3 energy=-1.3706557560580246 pbc="F F F"
Te       0.00000000       0.00000000       0.00000000       0.00000000       0.00000000       0.03474431
Te       0.00000000       0.00000000       5.23575758       0.00000000       0.00000000      -0.03474431
2
Properties=species:S:1:pos:R:3:forces:R:3 energy=-1.36844527242933 pbc="F F F"
Te       0.00000000       0.00000000       0.00000000       0.00000000       0.00000000       0.03965551
Te       0.00000000       0.00000000       5.29454545       0.00000000       0.00000000      -0.03965551
2
Properties=species:S:1:pos:R:3:forces:R:3 energy=-1.3660769442195075 pbc="F F F"
Te       0.00000000       0.00000000       0.00000000       0.00000000       0.00000000       0.04068246
Te       0.00000000       0.00000000       5.35333333       0.00000000       0.00000000      -0.04068246
2
Properties=species:S:1:pos:R:3:forces:R:3 energy=-1.3635553343076594 pbc="F F F"
Te       0.00000000       0.00000000       0.00000000       0.00000000       0.00000000       0.04731656
Te       0.00000000       0.00000000       5.41212121       0.00000000       0.00000000      -0.04731656
2
Properties=species:S:1:pos:R:3:forces:R:3 energy=-1.3601943283719915 pbc="F F F"
Te       0.00000000       0.00000000       0.00000000       0.00000000       0.00000000       0.06896672
Te       0.00000000       0.00000000       5.47090909       0.00000000       0.00000000      -0.06896672
2
Properties=species:S:1:pos:R:3:forces:R:3 energy=-1.3555016709861034 pbc="F F F"
Te       0.00000000       0.00000000       0.00000000       0.00000000       0.00000000       0.08783270
Te       0.00000000       0.00000000       5.52969697       0.00000000       0.00000000      -0.08783270
2
Properties=species:S:1:pos:R:3:forces:R:3 energy=-1.3502741809598688 pbc="F F F"
Te       0.00000000       0.00000000       0.00000000       0.00000000       0.00000000       0.08731641
Te       0.00000000       0.00000000       5.58848485       0.00000000       0.00000000      -0.08731641
2
Properties=species:S:1:pos:R:3:forces:R:3 energy=-1.3453303783615513 pbc="F F F"
Te       0.00000000       0.00000000       0.00000000       0.00000000       0.00000000       0.08210029
Te       0.00000000       0.00000000       5.64727273       0.00000000       0.00000000      -0.08210029
2
Properties=species:S:1:pos:R:3:forces:R:3 energy=-1.3403127824500447 pbc="F F F"
Te       0.00000000       0.00000000       0.00000000       0.00000000       0.00000000       0.09154734
Te       0.00000000       0.00000000       5.70606061       0.00000000       0.00000000      -0.09154734
2
Properties=species:S:1:pos:R:3:forces:R:3 energy=-1.334477946482768 pbc="F F F"
Te       0.00000000       0.00000000       0.00000000       0.00000000       0.00000000       0.10386170
Te       0.00000000       0.00000000       5.76484848       0.00000000       0.00000000      -0.10386170
2
Properties=species:S:1:pos:R:3:forces:R:3 energy=-1.3287198619275664 pbc="F F F"
Te       0.00000000       0.00000000       0.00000000       0.00000000       0.00000000       0.08666492
Te       0.00000000       0.00000000       5.82363636       0.00000000       0.00000000      -0.08666492
2
Properties=species:S:1:pos:R:3:forces:R:3 energy=-1.3247106583058517 pbc="F F F"
Te       0.00000000       0.00000000       0.00000000       0.00000000       0.00000000       0.04926145
Te       0.00000000       0.00000000       5.88242424       0.00000000       0.00000000      -0.04926145
2
Properties=species:S:1:pos:R:3:forces:R:3 energy=-1.3227795685324684 pbc="F F F"
Te       0.00000000       0.00000000       0.00000000       0.00000000       0.00000000       0.01874716
Te       0.00000000       0.00000000       5.94121212       0.00000000       0.00000000      -0.01874716
2
Properties=species:S:1:pos:R:3:forces:R:3 energy=-1.3221238156925976 pbc="F F F"
Te       0.00000000       0.00000000       0.00000000       0.00000000       0.00000000       0.00726031
Te       0.00000000       0.00000000       6.00000000       0.00000000       0.00000000      -0.00726031
