2
Properties=species:S:1:pos:R:3:forces:R:3 energy=45144.62361432465 pbc="F F F"
Te       0.00000000       0.00000000       0.00000000       0.00000000       0.00000000 -1088653.00000000
Te       0.00000000       0.00000000       0.10000000       0.00000000       0.00000000 1088653.00000000
2
Properties=species:S:1:pos:R:3:forces:R:3 energy=13249.272051824648 pbc="F F F"
Te       0.00000000       0.00000000       0.00000000       0.00000000       0.00000000 -235504.32812500
Te       0.00000000       0.00000000       0.15959596       0.00000000       0.00000000  235504.32812500
2
Properties=species:S:1:pos:R:3:forces:R:3 energy=5140.621172918398 pbc="F F F"
Te       0.00000000       0.00000000       0.00000000       0.00000000       0.00000000  -73354.57812500
Te       0.00000000       0.00000000       0.21919192       0.00000000       0.00000000   73354.57812500
2
Properties=species:S:1:pos:R:3:forces:R:3 energy=2371.1245908871483 pbc="F F F"
Te       0.00000000       0.00000000       0.00000000       0.00000000       0.00000000  -27948.94531250
Te       0.00000000       0.00000000       0.27878788       0.00000000       0.00000000   27948.94531250
2
Properties=species:S:1:pos:R:3:forces:R:3 energy=1255.1234922575036 pbc="F F F"
Te       0.00000000       0.00000000       0.00000000       0.00000000       0.00000000  -12015.42382812
Te       0.00000000       0.00000000       0.33838384       0.00000000       0.00000000   12015.42382812
2
Properties=species:S:1:pos:R:3:forces:R:3 energy=757.2287168732142 pbc="F F F"
Te       0.00000000       0.00000000       0.00000000       0.00000000       0.00000000   -5597.14453125
Te       0.00000000       0.00000000       0.39797980       0.00000000       0.00000000    5597.14453125
2
Properties=species:S:1:pos:R:3:forces:R:3 energy=518.740069424948 pbc="F F F"
Te       0.00000000       0.00000000       0.00000000       0.00000000       0.00000000   -2771.70776367
Te       0.00000000       0.00000000       0.45757576       0.00000000       0.00000000    2771.70776367
2
Properties=species:S:1:pos:R:3:forces:R:3 energy=397.73262316122816 pbc="F F F"
Te       0.00000000       0.00000000       0.00000000       0.00000000       0.00000000   -1449.49523926
Te       0.00000000       0.00000000       0.51717172       0.00000000       0.00000000    1449.49523926
2
Properties=species:S:1:pos:R:3:forces:R:3 energy=332.8161803344839 pbc="F F F"
Te       0.00000000       0.00000000       0.00000000       0.00000000       0.00000000    -803.09844971
Te       0.00000000       0.00000000       0.57676768       0.00000000       0.00000000     803.09844971
2
Properties=species:S:1:pos:R:3:forces:R:3 energy=294.14601440122226 pbc="F F F"
Te       0.00000000       0.00000000       0.00000000       0.00000000       0.00000000    -562.13177490
Te       0.00000000       0.00000000       0.63636364       0.00000000       0.00000000     562.13177490
2
Properties=species:S:1:pos:R:3:forces:R:3 energy=265.1586793196892 pbc="F F F"
Te       0.00000000       0.00000000       0.00000000       0.00000000       0.00000000    -427.61215210
Te       0.00000000       0.00000000       0.69595960       0.00000000       0.00000000     427.61215210
2
Properties=species:S:1:pos:R:3:forces:R:3 energy=241.26008942503574 pbc="F F F"
Te       0.00000000       0.00000000       0.00000000       0.00000000       0.00000000    -386.74383545
Te       0.00000000       0.00000000       0.75555556       0.00000000       0.00000000     386.74383545
2
Properties=species:S:1:pos:R:3:forces:R:3 energy=217.51814635393254 pbc="F F F"
Te       0.00000000       0.00000000       0.00000000       0.00000000       0.00000000    -416.84085083
Te       0.00000000       0.00000000       0.81515152       0.00000000       0.00000000     416.84085083
2
Properties=species:S:1:pos:R:3:forces:R:3 energy=191.76095987926882 pbc="F F F"
Te       0.00000000       0.00000000       0.00000000       0.00000000       0.00000000    -445.02700806
Te       0.00000000       0.00000000       0.87474747       0.00000000       0.00000000     445.02700806
2
Properties=species:S:1:pos:R:3:forces:R:3 energy=164.98227394504624 pbc="F F F"
Te       0.00000000       0.00000000       0.00000000       0.00000000       0.00000000    -448.29437256
Te       0.00000000       0.00000000       0.93434343       0.00000000       0.00000000     448.29437256
2
Properties=species:S:1:pos:R:3:forces:R:3 energy=138.91591428871155 pbc="F F F"
Te       0.00000000       0.00000000       0.00000000       0.00000000       0.00000000    -440.45141602
Te       0.00000000       0.00000000       0.99393939       0.00000000       0.00000000     440.45141602
2
Properties=species:S:1:pos:R:3:forces:R:3 energy=113.3839482280277 pbc="F F F"
Te       0.00000000       0.00000000       0.00000000       0.00000000       0.00000000    -394.47463989
Te       0.00000000       0.00000000       1.05353535       0.00000000       0.00000000     394.47463989
2
Properties=species:S:1:pos:R:3:forces:R:3 energy=92.04145856066613 pbc="F F F"
Te       0.00000000       0.00000000       0.00000000       0.00000000       0.00000000    -322.00439453
Te       0.00000000       0.00000000       1.11313131       0.00000000       0.00000000     322.00439453
2
Properties=species:S:1:pos:R:3:forces:R:3 energy=74.91273736117768 pbc="F F F"
Te       0.00000000       0.00000000       0.00000000       0.00000000       0.00000000    -254.69094849
Te       0.00000000       0.00000000       1.17272727       0.00000000       0.00000000     254.69094849
2
Properties=species:S:1:pos:R:3:forces:R:3 energy=61.24333300456625 pbc="F F F"
Te       0.00000000       0.00000000       0.00000000       0.00000000       0.00000000    -208.42062378
Te       0.00000000       0.00000000       1.23232323       0.00000000       0.00000000     208.42062378
2
Properties=species:S:1:pos:R:3:forces:R:3 energy=49.73580986338234 pbc="F F F"
Te       0.00000000       0.00000000       0.00000000       0.00000000       0.00000000    -178.93240356
Te       0.00000000       0.00000000       1.29191919       0.00000000       0.00000000     178.93240356
2
Properties=species:S:1:pos:R:3:forces:R:3 energy=39.847603697591566 pbc="F F F"
Te       0.00000000       0.00000000       0.00000000       0.00000000       0.00000000    -153.36912537
Te       0.00000000       0.00000000       1.35151515       0.00000000       0.00000000     153.36912537
2
Properties=species:S:1:pos:R:3:forces:R:3 energy=31.402925817868717 pbc="F F F"
Te       0.00000000       0.00000000       0.00000000       0.00000000       0.00000000    -130.28292847
Te       0.00000000       0.00000000       1.41111111       0.00000000       0.00000000     130.28292847
2
Properties=species:S:1:pos:R:3:forces:R:3 energy=24.31377328739201 pbc="F F F"
Te       0.00000000       0.00000000       0.00000000       0.00000000       0.00000000    -107.68927765
Te       0.00000000       0.00000000       1.47070707       0.00000000       0.00000000     107.68927765
2
Properties=species:S:1:pos:R:3:forces:R:3 energy=18.522998367179603 pbc="F F F"
Te       0.00000000       0.00000000       0.00000000       0.00000000       0.00000000     -87.27495575
Te       0.00000000       0.00000000       1.53030303       0.00000000       0.00000000      87.27495575
2
Properties=species:S:1:pos:R:3:forces:R:3 energy=13.837236251625235 pbc="F F F"
Te       0.00000000       0.00000000       0.00000000       0.00000000       0.00000000     -70.47702789
Te       0.00000000       0.00000000       1.58989899       0.00000000       0.00000000      70.47702789
2
Properties=species:S:1:pos:R:3:forces:R:3 energy=10.075469388175376 pbc="F F F"
Te       0.00000000       0.00000000       0.00000000       0.00000000       0.00000000     -56.11571121
Te       0.00000000       0.00000000       1.64949495       0.00000000       0.00000000      56.11571121
2
Properties=species:S:1:pos:R:3:forces:R:3 energy=7.106176009997005 pbc="F F F"
Te       0.00000000       0.00000000       0.00000000       0.00000000       0.00000000     -43.90286255
Te       0.00000000       0.00000000       1.70909091       0.00000000       0.00000000      43.90286255
2
Properties=species:S:1:pos:R:3:forces:R:3 energy=4.796886280777169 pbc="F F F"
Te       0.00000000       0.00000000       0.00000000       0.00000000       0.00000000     -33.98617554
Te       0.00000000       0.00000000       1.76868687       0.00000000       0.00000000      33.98617554
2
Properties=species:S:1:pos:R:3:forces:R:3 energy=3.0087985156071335 pbc="F F F"
Te       0.00000000       0.00000000       0.00000000       0.00000000       0.00000000     -26.40531158
Te       0.00000000       0.00000000       1.82828283       0.00000000       0.00000000      26.40531158
2
Properties=species:S:1:pos:R:3:forces:R:3 energy=1.605453892927257 pbc="F F F"
Te       0.00000000       0.00000000       0.00000000       0.00000000       0.00000000     -21.03911781
Te       0.00000000       0.00000000       1.88787879       0.00000000       0.00000000      21.03911781
2
Properties=species:S:1:pos:R:3:forces:R:3 energy=0.4636296243440153 pbc="F F F"
Te       0.00000000       0.00000000       0.00000000       0.00000000       0.00000000     -17.54914665
Te       0.00000000       0.00000000       1.94747475       0.00000000       0.00000000      17.54914665
2
Properties=species:S:1:pos:R:3:forces:R:3 energy=-0.5115016091627713 pbc="F F F"
Te       0.00000000       0.00000000       0.00000000       0.00000000       0.00000000     -15.32566261
Te       0.00000000       0.00000000       2.00707071       0.00000000       0.00000000      15.32566261
2
Properties=species:S:1:pos:R:3:forces:R:3 energy=-1.3739313630886372 pbc="F F F"
Te       0.00000000       0.00000000       0.00000000       0.00000000       0.00000000     -13.65643406
Te       0.00000000       0.00000000       2.06666667       0.00000000       0.00000000      13.65643406
2
Properties=species:S:1:pos:R:3:forces:R:3 energy=-2.1396187032044414 pbc="F F F"
Te       0.00000000       0.00000000       0.00000000       0.00000000       0.00000000     -12.01836872
Te       0.00000000       0.00000000       2.12626263       0.00000000       0.00000000      12.01836872
2
Properties=species:S:1:pos:R:3:forces:R:3 energy=-2.802971445037557 pbc="F F F"
Te       0.00000000       0.00000000       0.00000000       0.00000000       0.00000000     -10.21526909
Te       0.00000000       0.00000000       2.18585859       0.00000000       0.00000000      10.21526909
2
Properties=species:S:1:pos:R:3:forces:R:3 energy=-3.354962173025045 pbc="F F F"
Te       0.00000000       0.00000000       0.00000000       0.00000000       0.00000000      -8.30214691
Te       0.00000000       0.00000000       2.24545455       0.00000000       0.00000000       8.30214691
2
Properties=species:S:1:pos:R:3:forces:R:3 energy=-3.7931586368493444 pbc="F F F"
Te       0.00000000       0.00000000       0.00000000       0.00000000       0.00000000      -6.41937065
Te       0.00000000       0.00000000       2.30505051       0.00000000       0.00000000       6.41937065
2
Properties=species:S:1:pos:R:3:forces:R:3 energy=-4.122856415919091 pbc="F F F"
Te       0.00000000       0.00000000       0.00000000       0.00000000       0.00000000      -4.67302847
Te       0.00000000       0.00000000       2.36464646       0.00000000       0.00000000       4.67302847
2
Properties=species:S:1:pos:R:3:forces:R:3 energy=-4.353689214724076 pbc="F F F"
Te       0.00000000       0.00000000       0.00000000       0.00000000       0.00000000      -3.10362172
Te       0.00000000       0.00000000       2.42424242       0.00000000       0.00000000       3.10362172
2
Properties=species:S:1:pos:R:3:forces:R:3 energy=-4.496248408165547 pbc="F F F"
Te       0.00000000       0.00000000       0.00000000       0.00000000       0.00000000      -1.70836055
Te       0.00000000       0.00000000       2.48383838       0.00000000       0.00000000       1.70836055
2
Properties=species:S:1:pos:R:3:forces:R:3 energy=-4.560492713605862 pbc="F F F"
Te       0.00000000       0.00000000       0.00000000       0.00000000       0.00000000      -0.47373459
Te       0.00000000       0.00000000       2.54343434       0.00000000       0.00000000       0.47373459
2
Properties=species:S:1:pos:R:3:forces:R:3 energy=-4.555860606396492 pbc="F F F"
Te       0.00000000       0.00000000       0.00000000       0.00000000       0.00000000       0.60179704
Te       0.00000000       0.00000000       2.60303030       0.00000000       0.00000000      -0.60179704
2
Properties=species:S:1:pos:R:3:forces:R:3 energy=-4.492275213839162 pbc="F F F"
Te       0.00000000       0.00000000       0.00000000       0.00000000       0.00000000       1.50010705
Te       0.00000000       0.00000000       2.66262626       0.00000000       0.00000000      -1.50010705
2
Properties=species:S:1:pos:R:3:forces:R:3 energy=-4.381156123957858 pbc="F F F"
Te       0.00000000       0.00000000       0.00000000       0.00000000       0.00000000       2.19269729
Te       0.00000000       0.00000000       2.72222222       0.00000000       0.00000000      -2.19269729
2
Properties=species:S:1:pos:R:3:forces:R:3 energy=-4.2352887527882475 pbc="F F F"
Te       0.00000000       0.00000000       0.00000000       0.00000000       0.00000000       2.66710114
Te       0.00000000       0.00000000       2.78181818       0.00000000       0.00000000      -2.66710114
2
Properties=species:S:1:pos:R:3:forces:R:3 energy=-4.067034989934848 pbc="F F F"
Te       0.00000000       0.00000000       0.00000000       0.00000000       0.00000000       2.95285583
Te       0.00000000       0.00000000       2.84141414       0.00000000       0.00000000      -2.95285583
2
Properties=species:S:1:pos:R:3:forces:R:3 energy=-3.885757279892908 pbc="F F F"
Te       0.00000000       0.00000000       0.00000000       0.00000000       0.00000000       3.11633754
Te       0.00000000       0.00000000       2.90101010       0.00000000       0.00000000      -3.11633754
2
Properties=species:S:1:pos:R:3:forces:R:3 energy=-3.696777241373105 pbc="F F F"
Te       0.00000000       0.00000000       0.00000000       0.00000000       0.00000000       3.21847534
Te       0.00000000       0.00000000       2.96060606       0.00000000       0.00000000      -3.21847534
2
Properties=species:S:1:pos:R:3:forces:R:3 energy=-3.5029935305979087 pbc="F F F"
Te       0.00000000       0.00000000       0.00000000       0.00000000       0.00000000       3.27625942
Te       0.00000000       0.00000000       3.02020202       0.00000000       0.00000000      -3.27625942
2
Properties=species:S:1:pos:R:3:forces:R:3 energy=-3.307569355713831 pbc="F F F"
Te       0.00000000       0.00000000       0.00000000       0.00000000       0.00000000       3.26894188
Te       0.00000000       0.00000000       3.07979798       0.00000000       0.00000000      -3.26894188
2
Properties=species:S:1:pos:R:3:forces:R:3 energy=-3.115061966970937 pbc="F F F"
Te       0.00000000       0.00000000       0.00000000       0.00000000       0.00000000       3.17721748
Te       0.00000000       0.00000000       3.13939394       0.00000000       0.00000000      -3.17721748
2
Properties=species:S:1:pos:R:3:forces:R:3 energy=-2.9303767564299372 pbc="F F F"
Te       0.00000000       0.00000000       0.00000000       0.00000000       0.00000000       3.01046777
Te       0.00000000       0.00000000       3.19898990       0.00000000       0.00000000      -3.01046777
2
Properties=species:S:1:pos:R:3:forces:R:3 energy=-2.757101178755886 pbc="F F F"
Te       0.00000000       0.00000000       0.00000000       0.00000000       0.00000000       2.80020976
Te       0.00000000       0.00000000       3.25858586       0.00000000       0.00000000      -2.80020976
2
Properties=species:S:1:pos:R:3:forces:R:3 energy=-2.5968602859600236 pbc="F F F"
Te       0.00000000       0.00000000       0.00000000       0.00000000       0.00000000       2.57702446
Te       0.00000000       0.00000000       3.31818182       0.00000000       0.00000000      -2.57702446
2
Properties=species:S:1:pos:R:3:forces:R:3 energy=-2.4498765302237633 pbc="F F F"
Te       0.00000000       0.00000000       0.00000000       0.00000000       0.00000000       2.35660028
Te       0.00000000       0.00000000       3.37777778       0.00000000       0.00000000      -2.35660028
2
Properties=species:S:1:pos:R:3:forces:R:3 energy=-2.3158676987928937 pbc="F F F"
Te       0.00000000       0.00000000       0.00000000       0.00000000       0.00000000       2.14133930
Te       0.00000000       0.00000000       3.43737374       0.00000000       0.00000000      -2.14133930
2
Properties=species:S:1:pos:R:3:forces:R:3 energy=-2.194593387535895 pbc="F F F"
Te       0.00000000       0.00000000       0.00000000       0.00000000       0.00000000       1.92880905
Te       0.00000000       0.00000000       3.49696970       0.00000000       0.00000000      -1.92880905
2
Properties=species:S:1:pos:R:3:forces:R:3 energy=-2.085932720728917 pbc="F F F"
Te       0.00000000       0.00000000       0.00000000       0.00000000       0.00000000       1.71818137
Te       0.00000000       0.00000000       3.55656566       0.00000000       0.00000000      -1.71818137
2
Properties=species:S:1:pos:R:3:forces:R:3 energy=-1.9897096164117927 pbc="F F F"
Te       0.00000000       0.00000000       0.00000000       0.00000000       0.00000000       1.51220536
Te       0.00000000       0.00000000       3.61616162       0.00000000       0.00000000      -1.51220536
2
Properties=species:S:1:pos:R:3:forces:R:3 energy=-1.9054957164253477 pbc="F F F"
Te       0.00000000       0.00000000       0.00000000       0.00000000       0.00000000       1.31610584
Te       0.00000000       0.00000000       3.67575758       0.00000000       0.00000000      -1.31610584
2
Properties=species:S:1:pos:R:3:forces:R:3 energy=-1.8325315418897103 pbc="F F F"
Te       0.00000000       0.00000000       0.00000000       0.00000000       0.00000000       1.13549900
Te       0.00000000       0.00000000       3.73535354       0.00000000       0.00000000      -1.13549900
2
Properties=species:S:1:pos:R:3:forces:R:3 energy=-1.7697580318129356 pbc="F F F"
Te       0.00000000       0.00000000       0.00000000       0.00000000       0.00000000       0.97469682
Te       0.00000000       0.00000000       3.79494949       0.00000000       0.00000000      -0.97469682
2
Properties=species:S:1:pos:R:3:forces:R:3 energy=-1.7159168036072427 pbc="F F F"
Te       0.00000000       0.00000000       0.00000000       0.00000000       0.00000000       0.83591753
Te       0.00000000       0.00000000       3.85454545       0.00000000       0.00000000      -0.83591753
2
Properties=species:S:1:pos:R:3:forces:R:3 energy=-1.6696821724574442 pbc="F F F"
Te       0.00000000       0.00000000       0.00000000       0.00000000       0.00000000       0.71931142
Te       0.00000000       0.00000000       3.91414141       0.00000000       0.00000000      -0.71931142
2
Properties=species:S:1:pos:R:3:forces:R:3 energy=-1.629767818628549 pbc="F F F"
Te       0.00000000       0.00000000       0.00000000       0.00000000       0.00000000       0.62343490
Te       0.00000000       0.00000000       3.97373737       0.00000000       0.00000000      -0.62343490
2
Properties=species:S:1:pos:R:3:forces:R:3 energy=-1.5950110597619267 pbc="F F F"
Te       0.00000000       0.00000000       0.00000000       0.00000000       0.00000000       0.54577953
Te       0.00000000       0.00000000       4.03333333       0.00000000       0.00000000      -0.54577953
2
Properties=species:S:1:pos:R:3:forces:R:3 energy=-1.5644162683992824 pbc="F F F"
Te       0.00000000       0.00000000       0.00000000       0.00000000       0.00000000       0.48317310
Te       0.00000000       0.00000000       4.09292929       0.00000000       0.00000000      -0.48317310
2
Properties=species:S:1:pos:R:3:forces:R:3 energy=-1.5371914640668554 pbc="F F F"
Te       0.00000000       0.00000000       0.00000000       0.00000000       0.00000000       0.43208992
Te       0.00000000       0.00000000       4.15252525       0.00000000       0.00000000      -0.43208992
2
Properties=species:S:1:pos:R:3:forces:R:3 energy=-1.5127574647122337 pbc="F F F"
Te       0.00000000       0.00000000       0.00000000       0.00000000       0.00000000       0.38894731
Te       0.00000000       0.00000000       4.21212121       0.00000000       0.00000000      -0.38894731
2
Properties=species:S:1:pos:R:3:forces:R:3 energy=-1.490739837493463 pbc="F F F"
Te       0.00000000       0.00000000       0.00000000       0.00000000       0.00000000       0.35047689
Te       0.00000000       0.00000000       4.27171717       0.00000000       0.00000000      -0.35047689
2
Properties=species:S:1:pos:R:3:forces:R:3 energy=-1.470941833934545 pbc="F F F"
Te       0.00000000       0.00000000       0.00000000       0.00000000       0.00000000       0.31413582
Te       0.00000000       0.00000000       4.33131313       0.00000000       0.00000000      -0.31413582
2
Properties=species:S:1:pos:R:3:forces:R:3 energy=-1.4532858264860458 pbc="F F F"
Te       0.00000000       0.00000000       0.00000000       0.00000000       0.00000000       0.27841970
Te       0.00000000       0.00000000       4.39090909       0.00000000       0.00000000      -0.27841970
2
Properties=species:S:1:pos:R:3:forces:R:3 energy=-1.437751900733785 pbc="F F F"
Te       0.00000000       0.00000000       0.00000000       0.00000000       0.00000000       0.24295071
Te       0.00000000       0.00000000       4.45050505       0.00000000       0.00000000      -0.24295071
2
Properties=species:S:1:pos:R:3:forces:R:3 energy=-1.4243135298998097 pbc="F F F"
Te       0.00000000       0.00000000       0.00000000       0.00000000       0.00000000       0.20823972
Te       0.00000000       0.00000000       4.51010101       0.00000000       0.00000000      -0.20823972
2
Properties=species:S:1:pos:R:3:forces:R:3 energy=-1.4128976564014255 pbc="F F F"
Te       0.00000000       0.00000000       0.00000000       0.00000000       0.00000000       0.17522374
Te       0.00000000       0.00000000       4.56969697       0.00000000       0.00000000      -0.17522374
2
Properties=species:S:1:pos:R:3:forces:R:3 energy=-1.403376720667905 pbc="F F F"
Te       0.00000000       0.00000000       0.00000000       0.00000000       0.00000000       0.14476913
Te       0.00000000       0.00000000       4.62929293       0.00000000       0.00000000      -0.14476913
2
Properties=species:S:1:pos:R:3:forces:R:3 energy=-1.3955827445076858 pbc="F F F"
Te       0.00000000       0.00000000       0.00000000       0.00000000       0.00000000       0.11731391
Te       0.00000000       0.00000000       4.68888889       0.00000000       0.00000000      -0.11731391
2
Properties=species:S:1:pos:R:3:forces:R:3 energy=-1.3893350510199873 pbc="F F F"
Te       0.00000000       0.00000000       0.00000000       0.00000000       0.00000000       0.09282116
Te       0.00000000       0.00000000       4.74848485       0.00000000       0.00000000      -0.09282116
2
Properties=species:S:1:pos:R:3:forces:R:3 energy=-1.3844652466925114 pbc="F F F"
Te       0.00000000       0.00000000       0.00000000       0.00000000       0.00000000       0.07104978
Te       0.00000000       0.00000000       4.80808081       0.00000000       0.00000000      -0.07104978
2
Properties=species:S:1:pos:R:3:forces:R:3 energy=-1.3808136530423099 pbc="F F F"
Te       0.00000000       0.00000000       0.00000000       0.00000000       0.00000000       0.05195897
Te       0.00000000       0.00000000       4.86767677       0.00000000       0.00000000      -0.05195897
2
Properties=species:S:1:pos:R:3:forces:R:3 energy=-1.378208573702871 pbc="F F F"
Te       0.00000000       0.00000000       0.00000000       0.00000000       0.00000000       0.03608259
Te       0.00000000       0.00000000       4.92727273       0.00000000       0.00000000      -0.03608259
2
Properties=species:S:1:pos:R:3:forces:R:3 energy=-1.3764264979442995 pbc="F F F"
Te       0.00000000       0.00000000       0.00000000       0.00000000       0.00000000       0.02456075
Te       0.00000000       0.00000000       4.98686869       0.00000000       0.00000000      -0.02456075
2
Properties=species:S:1:pos:R:3:forces:R:3 energy=-1.3751677593875353 pbc="F F F"
Te       0.00000000       0.00000000       0.00000000       0.00000000       0.00000000       0.01872796
Te       0.00000000       0.00000000       5.04646465       0.00000000       0.00000000      -0.01872796
2
Properties=species:S:1:pos:R:3:forces:R:3 energy=-1.374066824849168 pbc="F F F"
Te       0.00000000       0.00000000       0.00000000       0.00000000       0.00000000       0.01926877
Te       0.00000000       0.00000000       5.10606061       0.00000000       0.00000000      -0.01926877
2
Properties=species:S:1:pos:R:3:forces:R:3 energy=-1.3727615529387964 pbc="F F F"
Te       0.00000000       0.00000000       0.00000000       0.00000000       0.00000000       0.02523286
Te       0.00000000       0.00000000       5.16565657       0.00000000       0.00000000      -0.02523286
2
Properties=species:S:1:pos:R:3:forces:R:3 energy=-1.3710135906897412 pbc="F F F"
Te       0.00000000       0.00000000       0.00000000       0.00000000       0.00000000       0.03342406
Te       0.00000000       0.00000000       5.22525253       0.00000000       0.00000000      -0.03342406
2
Properties=species:S:1:pos:R:3:forces:R:3 energy=-1.3688273491817498 pbc="F F F"
Te       0.00000000       0.00000000       0.00000000       0.00000000       0.00000000       0.03918961
Te       0.00000000       0.00000000       5.28484848       0.00000000       0.00000000      -0.03918961
2
Properties=species:S:1:pos:R:3:forces:R:3 energy=-1.3664375958554575 pbc="F F F"
Te       0.00000000       0.00000000       0.00000000       0.00000000       0.00000000       0.04053457
Te       0.00000000       0.00000000       5.34444444       0.00000000       0.00000000      -0.04053457
2
Properties=species:S:1:pos:R:3:forces:R:3 energy=-1.36392987946317 pbc="F F F"
Te       0.00000000       0.00000000       0.00000000       0.00000000       0.00000000       0.04552069
Te       0.00000000       0.00000000       5.40404040       0.00000000       0.00000000      -0.04552069
2
Properties=species:S:1:pos:R:3:forces:R:3 energy=-1.3606831755390991 pbc="F F F"
Te       0.00000000       0.00000000       0.00000000       0.00000000       0.00000000       0.06584099
Te       0.00000000       0.00000000       5.46363636       0.00000000       0.00000000      -0.06584099
2
Properties=species:S:1:pos:R:3:forces:R:3 energy=-1.3560670595465667 pbc="F F F"
Te       0.00000000       0.00000000       0.00000000       0.00000000       0.00000000       0.08670186
Te       0.00000000       0.00000000       5.52323232       0.00000000       0.00000000      -0.08670186
2
Properties=species:S:1:pos:R:3:forces:R:3 energy=-1.3507701090524895 pbc="F F F"
Te       0.00000000       0.00000000       0.00000000       0.00000000       0.00000000       0.08795229
Te       0.00000000       0.00000000       5.58282828       0.00000000       0.00000000      -0.08795229
2
Properties=species:S:1:pos:R:3:forces:R:3 energy=-1.3457296371821037 pbc="F F F"
Te       0.00000000       0.00000000       0.00000000       0.00000000       0.00000000       0.08212952
Te       0.00000000       0.00000000       5.64242424       0.00000000       0.00000000      -0.08212952
2
Properties=species:S:1:pos:R:3:forces:R:3 energy=-1.3406751566733202 pbc="F F F"
Te       0.00000000       0.00000000       0.00000000       0.00000000       0.00000000       0.09046684
Te       0.00000000       0.00000000       5.70202020       0.00000000       0.00000000      -0.09046684
2
Properties=species:S:1:pos:R:3:forces:R:3 energy=-1.334826590269533 pbc="F F F"
Te       0.00000000       0.00000000       0.00000000       0.00000000       0.00000000       0.10367662
Te       0.00000000       0.00000000       5.76161616       0.00000000       0.00000000      -0.10367662
2
Properties=species:S:1:pos:R:3:forces:R:3 energy=-1.328933967798369 pbc="F F F"
Te       0.00000000       0.00000000       0.00000000       0.00000000       0.00000000       0.08798240
Te       0.00000000       0.00000000       5.82121212       0.00000000       0.00000000      -0.08798240
2
Properties=species:S:1:pos:R:3:forces:R:3 energy=-1.3247995596874291 pbc="F F F"
Te       0.00000000       0.00000000       0.00000000       0.00000000       0.00000000       0.05027393
Te       0.00000000       0.00000000       5.88080808       0.00000000       0.00000000      -0.05027393
2
Properties=species:S:1:pos:R:3:forces:R:3 energy=-1.3227922313965803 pbc="F F F"
Te       0.00000000       0.00000000       0.00000000       0.00000000       0.00000000       0.01906617
Te       0.00000000       0.00000000       5.94040404       0.00000000       0.00000000      -0.01906617
2
Properties=species:S:1:pos:R:3:forces:R:3 energy=-1.3221238156925976 pbc="F F F"
Te       0.00000000       0.00000000       0.00000000       0.00000000       0.00000000       0.00726031
Te       0.00000000       0.00000000       6.00000000       0.00000000       0.00000000      -0.00726031
