2
Properties=species:S:1:pos:R:3:forces:R:3 energy=19229.828724163737 pbc="F F F"
Th       0.00000000       0.00000000       0.00000000       0.00000000       0.00000000 -345789.78125000
Th       0.00000000       0.00000000       0.18000000       0.00000000       0.00000000  345789.78125000
2
Properties=species:S:1:pos:R:3:forces:R:3 energy=7259.106067913736 pbc="F F F"
Th       0.00000000       0.00000000       0.00000000       0.00000000       0.00000000 -111709.32031250
Th       0.00000000       0.00000000       0.23878788       0.00000000       0.00000000  111709.32031250
2
Properties=species:S:1:pos:R:3:forces:R:3 energy=3095.3475229918613 pbc="F F F"
Th       0.00000000       0.00000000       0.00000000       0.00000000       0.00000000  -42403.64453125
Th       0.00000000       0.00000000       0.29757576       0.00000000       0.00000000   42403.64453125
2
Properties=species:S:1:pos:R:3:forces:R:3 energy=1440.015247601236 pbc="F F F"
Th       0.00000000       0.00000000       0.00000000       0.00000000       0.00000000  -17816.39453125
Th       0.00000000       0.00000000       0.35636364       0.00000000       0.00000000   17816.39453125
2
Properties=species:S:1:pos:R:3:forces:R:3 energy=720.5375864810949 pbc="F F F"
Th       0.00000000       0.00000000       0.00000000       0.00000000       0.00000000   -8070.47802734
Th       0.00000000       0.00000000       0.41515152       0.00000000       0.00000000    8070.47802734
2
Properties=species:S:1:pos:R:3:forces:R:3 energy=385.3550303287511 pbc="F F F"
Th       0.00000000       0.00000000       0.00000000       0.00000000       0.00000000   -3891.00585938
Th       0.00000000       0.00000000       0.47393939       0.00000000       0.00000000    3891.00585938
2
Properties=species:S:1:pos:R:3:forces:R:3 energy=219.75687055138334 pbc="F F F"
Th       0.00000000       0.00000000       0.00000000       0.00000000       0.00000000   -1979.68664551
Th       0.00000000       0.00000000       0.53272727       0.00000000       0.00000000    1979.68664551
2
Properties=species:S:1:pos:R:3:forces:R:3 energy=133.71010238824937 pbc="F F F"
Th       0.00000000       0.00000000       0.00000000       0.00000000       0.00000000   -1054.26135254
Th       0.00000000       0.00000000       0.59151515       0.00000000       0.00000000    1054.26135254
2
Properties=species:S:1:pos:R:3:forces:R:3 energy=87.09496724606343 pbc="F F F"
Th       0.00000000       0.00000000       0.00000000       0.00000000       0.00000000    -582.15594482
Th       0.00000000       0.00000000       0.65030303       0.00000000       0.00000000     582.15594482
2
Properties=species:S:1:pos:R:3:forces:R:3 energy=61.0384563841269 pbc="F F F"
Th       0.00000000       0.00000000       0.00000000       0.00000000       0.00000000    -329.45178223
Th       0.00000000       0.00000000       0.70909091       0.00000000       0.00000000     329.45178223
2
Properties=species:S:1:pos:R:3:forces:R:3 energy=46.21322302602456 pbc="F F F"
Th       0.00000000       0.00000000       0.00000000       0.00000000       0.00000000    -188.00289917
Th       0.00000000       0.00000000       0.76787879       0.00000000       0.00000000     188.00289917
2
Properties=species:S:1:pos:R:3:forces:R:3 energy=37.78781958310932 pbc="F F F"
Th       0.00000000       0.00000000       0.00000000       0.00000000       0.00000000    -105.87494659
Th       0.00000000       0.00000000       0.82666667       0.00000000       0.00000000     105.87494659
2
Properties=species:S:1:pos:R:3:forces:R:3 energy=33.106247850743294 pbc="F F F"
Th       0.00000000       0.00000000       0.00000000       0.00000000       0.00000000     -57.72718048
Th       0.00000000       0.00000000       0.88545455       0.00000000       0.00000000      57.72718048
2
Properties=species:S:1:pos:R:3:forces:R:3 energy=30.602692857002655 pbc="F F F"
Th       0.00000000       0.00000000       0.00000000       0.00000000       0.00000000     -30.00638390
Th       0.00000000       0.00000000       0.94424242       0.00000000       0.00000000      30.00638390
2
Properties=species:S:1:pos:R:3:forces:R:3 energy=29.346797660531156 pbc="F F F"
Th       0.00000000       0.00000000       0.00000000       0.00000000       0.00000000     -14.29615211
Th       0.00000000       0.00000000       1.00303030       0.00000000       0.00000000      14.29615211
2
Properties=species:S:1:pos:R:3:forces:R:3 energy=28.754051483448713 pbc="F F F"
Th       0.00000000       0.00000000       0.00000000       0.00000000       0.00000000      -7.21431446
Th       0.00000000       0.00000000       1.06181818       0.00000000       0.00000000       7.21431446
2
Properties=species:S:1:pos:R:3:forces:R:3 energy=28.35122782919927 pbc="F F F"
Th       0.00000000       0.00000000       0.00000000       0.00000000       0.00000000      -7.64893723
Th       0.00000000       0.00000000       1.12060606       0.00000000       0.00000000       7.64893723
2
Properties=species:S:1:pos:R:3:forces:R:3 energy=27.727445705987517 pbc="F F F"
Th       0.00000000       0.00000000       0.00000000       0.00000000       0.00000000     -14.52460861
Th       0.00000000       0.00000000       1.17939394       0.00000000       0.00000000      14.52460861
2
Properties=species:S:1:pos:R:3:forces:R:3 energy=26.57570213058708 pbc="F F F"
Th       0.00000000       0.00000000       0.00000000       0.00000000       0.00000000     -24.74502182
Th       0.00000000       0.00000000       1.23818182       0.00000000       0.00000000      24.74502182
2
Properties=species:S:1:pos:R:3:forces:R:3 energy=24.833085191721 pbc="F F F"
Th       0.00000000       0.00000000       0.00000000       0.00000000       0.00000000     -34.52749252
Th       0.00000000       0.00000000       1.29696970       0.00000000       0.00000000      34.52749252
2
Properties=species:S:1:pos:R:3:forces:R:3 energy=22.488162305040653 pbc="F F F"
Th       0.00000000       0.00000000       0.00000000       0.00000000       0.00000000     -45.55450439
Th       0.00000000       0.00000000       1.35575758       0.00000000       0.00000000      45.55450439
2
Properties=species:S:1:pos:R:3:forces:R:3 energy=19.473779666594854 pbc="F F F"
Th       0.00000000       0.00000000       0.00000000       0.00000000       0.00000000     -56.59043884
Th       0.00000000       0.00000000       1.41454545       0.00000000       0.00000000      56.59043884
2
Properties=species:S:1:pos:R:3:forces:R:3 energy=15.940276453655672 pbc="F F F"
Th       0.00000000       0.00000000       0.00000000       0.00000000       0.00000000     -62.30217743
Th       0.00000000       0.00000000       1.47333333       0.00000000       0.00000000      62.30217743
2
Properties=species:S:1:pos:R:3:forces:R:3 energy=12.317549172953866 pbc="F F F"
Th       0.00000000       0.00000000       0.00000000       0.00000000       0.00000000     -59.66850281
Th       0.00000000       0.00000000       1.53212121       0.00000000       0.00000000      59.66850281
2
Properties=species:S:1:pos:R:3:forces:R:3 energy=9.02165935256951 pbc="F F F"
Th       0.00000000       0.00000000       0.00000000       0.00000000       0.00000000     -52.10803223
Th       0.00000000       0.00000000       1.59090909       0.00000000       0.00000000      52.10803223
2
Properties=species:S:1:pos:R:3:forces:R:3 energy=6.197071650027202 pbc="F F F"
Th       0.00000000       0.00000000       0.00000000       0.00000000       0.00000000     -44.06778336
Th       0.00000000       0.00000000       1.64969697       0.00000000       0.00000000      44.06778336
2
Properties=species:S:1:pos:R:3:forces:R:3 energy=3.8369300269744744 pbc="F F F"
Th       0.00000000       0.00000000       0.00000000       0.00000000       0.00000000     -36.16271591
Th       0.00000000       0.00000000       1.70848485       0.00000000       0.00000000      36.16271591
2
Properties=species:S:1:pos:R:3:forces:R:3 energy=1.9540320291325106 pbc="F F F"
Th       0.00000000       0.00000000       0.00000000       0.00000000       0.00000000     -27.90715408
Th       0.00000000       0.00000000       1.76727273       0.00000000       0.00000000      27.90715408
2
Properties=species:S:1:pos:R:3:forces:R:3 energy=0.534794965057087 pbc="F F F"
Th       0.00000000       0.00000000       0.00000000       0.00000000       0.00000000     -20.69243050
Th       0.00000000       0.00000000       1.82606061       0.00000000       0.00000000      20.69243050
2
Properties=species:S:1:pos:R:3:forces:R:3 energy=-0.5204762620663675 pbc="F F F"
Th       0.00000000       0.00000000       0.00000000       0.00000000       0.00000000     -15.54329777
Th       0.00000000       0.00000000       1.88484848       0.00000000       0.00000000      15.54329777
2
Properties=species:S:1:pos:R:3:forces:R:3 energy=-1.326590409724387 pbc="F F F"
Th       0.00000000       0.00000000       0.00000000       0.00000000       0.00000000     -12.13230705
Th       0.00000000       0.00000000       1.94363636       0.00000000       0.00000000      12.13230705
2
Properties=species:S:1:pos:R:3:forces:R:3 energy=-1.9749930459724534 pbc="F F F"
Th       0.00000000       0.00000000       0.00000000       0.00000000       0.00000000     -10.16303158
Th       0.00000000       0.00000000       2.00242424       0.00000000       0.00000000      10.16303158
2
Properties=species:S:1:pos:R:3:forces:R:3 energy=-2.5487605568264233 pbc="F F F"
Th       0.00000000       0.00000000       0.00000000       0.00000000       0.00000000      -9.57272720
Th       0.00000000       0.00000000       2.06121212       0.00000000       0.00000000       9.57272720
2
Properties=species:S:1:pos:R:3:forces:R:3 energy=-3.121294132467769 pbc="F F F"
Th       0.00000000       0.00000000       0.00000000       0.00000000       0.00000000     -10.02774620
Th       0.00000000       0.00000000       2.12000000       0.00000000       0.00000000      10.02774620
2
Properties=species:S:1:pos:R:3:forces:R:3 energy=-3.733976344760496 pbc="F F F"
Th       0.00000000       0.00000000       0.00000000       0.00000000       0.00000000     -10.79560375
Th       0.00000000       0.00000000       2.17878788       0.00000000       0.00000000      10.79560375
2
Properties=species:S:1:pos:R:3:forces:R:3 energy=-4.380615709623396 pbc="F F F"
Th       0.00000000       0.00000000       0.00000000       0.00000000       0.00000000     -11.06778336
Th       0.00000000       0.00000000       2.23757576       0.00000000       0.00000000      11.06778336
2
Properties=species:S:1:pos:R:3:forces:R:3 energy=-5.01663981833647 pbc="F F F"
Th       0.00000000       0.00000000       0.00000000       0.00000000       0.00000000     -10.40868282
Th       0.00000000       0.00000000       2.29636364       0.00000000       0.00000000      10.40868282
2
Properties=species:S:1:pos:R:3:forces:R:3 energy=-5.587942806190609 pbc="F F F"
Th       0.00000000       0.00000000       0.00000000       0.00000000       0.00000000      -8.91950798
Th       0.00000000       0.00000000       2.35515152       0.00000000       0.00000000       8.91950798
2
Properties=species:S:1:pos:R:3:forces:R:3 energy=-6.057186246951315 pbc="F F F"
Th       0.00000000       0.00000000       0.00000000       0.00000000       0.00000000      -7.01191854
Th       0.00000000       0.00000000       2.41393939       0.00000000       0.00000000       7.01191854
2
Properties=species:S:1:pos:R:3:forces:R:3 energy=-6.412138557918516 pbc="F F F"
Th       0.00000000       0.00000000       0.00000000       0.00000000       0.00000000      -5.08578396
Th       0.00000000       0.00000000       2.47272727       0.00000000       0.00000000       5.08578396
2
Properties=species:S:1:pos:R:3:forces:R:3 energy=-6.659448962494487 pbc="F F F"
Th       0.00000000       0.00000000       0.00000000       0.00000000       0.00000000      -3.37377882
Th       0.00000000       0.00000000       2.53151515       0.00000000       0.00000000       3.37377882
2
Properties=species:S:1:pos:R:3:forces:R:3 energy=-6.8146090636442 pbc="F F F"
Th       0.00000000       0.00000000       0.00000000       0.00000000       0.00000000      -1.95484543
Th       0.00000000       0.00000000       2.59030303       0.00000000       0.00000000       1.95484543
2
Properties=species:S:1:pos:R:3:forces:R:3 energy=-6.894944291344057 pbc="F F F"
Th       0.00000000       0.00000000       0.00000000       0.00000000       0.00000000      -0.82351059
Th       0.00000000       0.00000000       2.64909091       0.00000000       0.00000000       0.82351059
2
Properties=species:S:1:pos:R:3:forces:R:3 energy=-6.91634283769048 pbc="F F F"
Th       0.00000000       0.00000000       0.00000000       0.00000000       0.00000000       0.05754063
Th       0.00000000       0.00000000       2.70787879       0.00000000       0.00000000      -0.05754063
2
Properties=species:S:1:pos:R:3:forces:R:3 energy=-6.892158880750893 pbc="F F F"
Th       0.00000000       0.00000000       0.00000000       0.00000000       0.00000000       0.73564374
Th       0.00000000       0.00000000       2.76666667       0.00000000       0.00000000      -0.73564374
2
Properties=species:S:1:pos:R:3:forces:R:3 energy=-6.83283115285102 pbc="F F F"
Th       0.00000000       0.00000000       0.00000000       0.00000000       0.00000000       1.26155508
Th       0.00000000       0.00000000       2.82545455       0.00000000       0.00000000      -1.26155508
2
Properties=species:S:1:pos:R:3:forces:R:3 energy=-6.745879113206338 pbc="F F F"
Th       0.00000000       0.00000000       0.00000000       0.00000000       0.00000000       1.68242812
Th       0.00000000       0.00000000       2.88424242       0.00000000       0.00000000      -1.68242812
2
Properties=species:S:1:pos:R:3:forces:R:3 energy=-6.636407365607718 pbc="F F F"
Th       0.00000000       0.00000000       0.00000000       0.00000000       0.00000000       2.03166246
Th       0.00000000       0.00000000       2.94303030       0.00000000       0.00000000      -2.03166246
2
Properties=species:S:1:pos:R:3:forces:R:3 energy=-6.508126178639 pbc="F F F"
Th       0.00000000       0.00000000       0.00000000       0.00000000       0.00000000       2.32310224
Th       0.00000000       0.00000000       3.00181818       0.00000000       0.00000000      -2.32310224
2
Properties=species:S:1:pos:R:3:forces:R:3 energy=-6.364436754377782 pbc="F F F"
Th       0.00000000       0.00000000       0.00000000       0.00000000       0.00000000       2.55469108
Th       0.00000000       0.00000000       3.06060606       0.00000000       0.00000000      -2.55469108
2
Properties=species:S:1:pos:R:3:forces:R:3 energy=-6.209082562610939 pbc="F F F"
Th       0.00000000       0.00000000       0.00000000       0.00000000       0.00000000       2.71885180
Th       0.00000000       0.00000000       3.11939394       0.00000000       0.00000000      -2.71885180
2
Properties=species:S:1:pos:R:3:forces:R:3 energy=-6.04614738280084 pbc="F F F"
Th       0.00000000       0.00000000       0.00000000       0.00000000       0.00000000       2.81284904
Th       0.00000000       0.00000000       3.17818182       0.00000000       0.00000000      -2.81284904
2
Properties=species:S:1:pos:R:3:forces:R:3 energy=-5.879592873412203 pbc="F F F"
Th       0.00000000       0.00000000       0.00000000       0.00000000       0.00000000       2.84424162
Th       0.00000000       0.00000000       3.23696970       0.00000000       0.00000000      -2.84424162
2
Properties=species:S:1:pos:R:3:forces:R:3 energy=-5.712629999167266 pbc="F F F"
Th       0.00000000       0.00000000       0.00000000       0.00000000       0.00000000       2.83005977
Th       0.00000000       0.00000000       3.29575758       0.00000000       0.00000000      -2.83005977
2
Properties=species:S:1:pos:R:3:forces:R:3 energy=-5.5473252902660075 pbc="F F F"
Th       0.00000000       0.00000000       0.00000000       0.00000000       0.00000000       2.79130578
Th       0.00000000       0.00000000       3.35454545       0.00000000       0.00000000      -2.79130578
2
Properties=species:S:1:pos:R:3:forces:R:3 energy=-5.384563897841763 pbc="F F F"
Th       0.00000000       0.00000000       0.00000000       0.00000000       0.00000000       2.74597621
Th       0.00000000       0.00000000       3.41333333       0.00000000       0.00000000      -2.74597621
2
Properties=species:S:1:pos:R:3:forces:R:3 energy=-5.224391338820002 pbc="F F F"
Th       0.00000000       0.00000000       0.00000000       0.00000000       0.00000000       2.70405102
Th       0.00000000       0.00000000       3.47212121       0.00000000       0.00000000      -2.70405102
2
Properties=species:S:1:pos:R:3:forces:R:3 energy=-5.06654194085941 pbc="F F F"
Th       0.00000000       0.00000000       0.00000000       0.00000000       0.00000000       2.66656661
Th       0.00000000       0.00000000       3.53090909       0.00000000       0.00000000      -2.66656661
2
Properties=species:S:1:pos:R:3:forces:R:3 energy=-4.910875038981854 pbc="F F F"
Th       0.00000000       0.00000000       0.00000000       0.00000000       0.00000000       2.62871885
Th       0.00000000       0.00000000       3.58969697       0.00000000       0.00000000      -2.62871885
2
Properties=species:S:1:pos:R:3:forces:R:3 energy=-4.7575873535053 pbc="F F F"
Th       0.00000000       0.00000000       0.00000000       0.00000000       0.00000000       2.58492804
Th       0.00000000       0.00000000       3.64848485       0.00000000       0.00000000      -2.58492804
2
Properties=species:S:1:pos:R:3:forces:R:3 energy=-4.607122167572373 pbc="F F F"
Th       0.00000000       0.00000000       0.00000000       0.00000000       0.00000000       2.53257823
Th       0.00000000       0.00000000       3.70727273       0.00000000       0.00000000      -2.53257823
2
Properties=species:S:1:pos:R:3:forces:R:3 energy=-4.459969405668182 pbc="F F F"
Th       0.00000000       0.00000000       0.00000000       0.00000000       0.00000000       2.47245574
Th       0.00000000       0.00000000       3.76606061       0.00000000       0.00000000      -2.47245574
2
Properties=species:S:1:pos:R:3:forces:R:3 energy=-4.316534127934963 pbc="F F F"
Th       0.00000000       0.00000000       0.00000000       0.00000000       0.00000000       2.40648556
Th       0.00000000       0.00000000       3.82484848       0.00000000       0.00000000      -2.40648556
2
Properties=species:S:1:pos:R:3:forces:R:3 energy=-4.177124520544105 pbc="F F F"
Th       0.00000000       0.00000000       0.00000000       0.00000000       0.00000000       2.33531523
Th       0.00000000       0.00000000       3.88363636       0.00000000       0.00000000      -2.33531523
2
Properties=species:S:1:pos:R:3:forces:R:3 energy=-4.04208272647554 pbc="F F F"
Th       0.00000000       0.00000000       0.00000000       0.00000000       0.00000000       2.25765395
Th       0.00000000       0.00000000       3.94242424       0.00000000       0.00000000      -2.25765395
2
Properties=species:S:1:pos:R:3:forces:R:3 energy=-3.9118512122458453 pbc="F F F"
Th       0.00000000       0.00000000       0.00000000       0.00000000       0.00000000       2.17136669
Th       0.00000000       0.00000000       4.00121212       0.00000000       0.00000000      -2.17136669
2
Properties=species:S:1:pos:R:3:forces:R:3 energy=-3.7869805366869533 pbc="F F F"
Th       0.00000000       0.00000000       0.00000000       0.00000000       0.00000000       2.07510924
Th       0.00000000       0.00000000       4.06000000       0.00000000       0.00000000      -2.07510924
2
Properties=species:S:1:pos:R:3:forces:R:3 energy=-3.6680537595852845 pbc="F F F"
Th       0.00000000       0.00000000       0.00000000       0.00000000       0.00000000       1.96952772
Th       0.00000000       0.00000000       4.11878788       0.00000000       0.00000000      -1.96952772
2
Properties=species:S:1:pos:R:3:forces:R:3 energy=-3.5555419790297464 pbc="F F F"
Th       0.00000000       0.00000000       0.00000000       0.00000000       0.00000000       1.85734224
Th       0.00000000       0.00000000       4.17757576       0.00000000       0.00000000      -1.85734224
2
Properties=species:S:1:pos:R:3:forces:R:3 energy=-3.4497255479105813 pbc="F F F"
Th       0.00000000       0.00000000       0.00000000       0.00000000       0.00000000       1.74245393
Th       0.00000000       0.00000000       4.23636364       0.00000000       0.00000000      -1.74245393
2
Properties=species:S:1:pos:R:3:forces:R:3 energy=-3.3506498714475663 pbc="F F F"
Th       0.00000000       0.00000000       0.00000000       0.00000000       0.00000000       1.62853456
Th       0.00000000       0.00000000       4.29515152       0.00000000       0.00000000      -1.62853456
2
Properties=species:S:1:pos:R:3:forces:R:3 energy=-3.2581842545654487 pbc="F F F"
Th       0.00000000       0.00000000       0.00000000       0.00000000       0.00000000       1.51797009
Th       0.00000000       0.00000000       4.35393939       0.00000000       0.00000000      -1.51797009
2
Properties=species:S:1:pos:R:3:forces:R:3 energy=-3.172094731266261 pbc="F F F"
Th       0.00000000       0.00000000       0.00000000       0.00000000       0.00000000       1.41149879
Th       0.00000000       0.00000000       4.41272727       0.00000000       0.00000000      -1.41149879
2
Properties=species:S:1:pos:R:3:forces:R:3 energy=-3.092152509404854 pbc="F F F"
Th       0.00000000       0.00000000       0.00000000       0.00000000       0.00000000       1.30870759
Th       0.00000000       0.00000000       4.47151515       0.00000000       0.00000000      -1.30870759
2
Properties=species:S:1:pos:R:3:forces:R:3 energy=-3.01816490808338 pbc="F F F"
Th       0.00000000       0.00000000       0.00000000       0.00000000       0.00000000       1.20878518
Th       0.00000000       0.00000000       4.53030303       0.00000000       0.00000000      -1.20878518
2
Properties=species:S:1:pos:R:3:forces:R:3 energy=-2.9499828056480433 pbc="F F F"
Th       0.00000000       0.00000000       0.00000000       0.00000000       0.00000000       1.11125696
Th       0.00000000       0.00000000       4.58909091       0.00000000       0.00000000      -1.11125696
2
Properties=species:S:1:pos:R:3:forces:R:3 energy=-2.8874556926192474 pbc="F F F"
Th       0.00000000       0.00000000       0.00000000       0.00000000       0.00000000       1.01653683
Th       0.00000000       0.00000000       4.64787879       0.00000000       0.00000000      -1.01653683
2
Properties=species:S:1:pos:R:3:forces:R:3 energy=-2.8303777130649874 pbc="F F F"
Th       0.00000000       0.00000000       0.00000000       0.00000000       0.00000000       0.92615169
Th       0.00000000       0.00000000       4.70666667       0.00000000       0.00000000      -0.92615169
2
Properties=species:S:1:pos:R:3:forces:R:3 energy=-2.778426028230459 pbc="F F F"
Th       0.00000000       0.00000000       0.00000000       0.00000000       0.00000000       0.84276992
Th       0.00000000       0.00000000       4.76545455       0.00000000       0.00000000      -0.84276992
2
Properties=species:S:1:pos:R:3:forces:R:3 energy=-2.7310821257356666 pbc="F F F"
Th       0.00000000       0.00000000       0.00000000       0.00000000       0.00000000       0.76982421
Th       0.00000000       0.00000000       4.82424242       0.00000000       0.00000000      -0.76982421
2
Properties=species:S:1:pos:R:3:forces:R:3 energy=-2.687640936502228 pbc="F F F"
Th       0.00000000       0.00000000       0.00000000       0.00000000       0.00000000       0.71079749
Th       0.00000000       0.00000000       4.88303030       0.00000000       0.00000000      -0.71079749
2
Properties=species:S:1:pos:R:3:forces:R:3 energy=-2.647189313724813 pbc="F F F"
Th       0.00000000       0.00000000       0.00000000       0.00000000       0.00000000       0.66813964
Th       0.00000000       0.00000000       4.94181818       0.00000000       0.00000000      -0.66813964
2
Properties=species:S:1:pos:R:3:forces:R:3 energy=-2.608752447221287 pbc="F F F"
Th       0.00000000       0.00000000       0.00000000       0.00000000       0.00000000       0.64221144
Th       0.00000000       0.00000000       5.00060606       0.00000000       0.00000000      -0.64221144
2
Properties=species:S:1:pos:R:3:forces:R:3 energy=-2.5713992761228974 pbc="F F F"
Th       0.00000000       0.00000000       0.00000000       0.00000000       0.00000000       0.63047457
Th       0.00000000       0.00000000       5.05939394       0.00000000       0.00000000      -0.63047457
2
Properties=species:S:1:pos:R:3:forces:R:3 energy=-2.5344545927106537 pbc="F F F"
Th       0.00000000       0.00000000       0.00000000       0.00000000       0.00000000       0.62728804
Th       0.00000000       0.00000000       5.11818182       0.00000000       0.00000000      -0.62728804
2
Properties=species:S:1:pos:R:3:forces:R:3 energy=-2.4976454187516053 pbc="F F F"
Th       0.00000000       0.00000000       0.00000000       0.00000000       0.00000000       0.62410998
Th       0.00000000       0.00000000       5.17696970       0.00000000       0.00000000      -0.62410998
2
Properties=species:S:1:pos:R:3:forces:R:3 energy=-2.4612881197339274 pbc="F F F"
Th       0.00000000       0.00000000       0.00000000       0.00000000       0.00000000       0.61006993
Th       0.00000000       0.00000000       5.23575758       0.00000000       0.00000000      -0.61006993
2
Properties=species:S:1:pos:R:3:forces:R:3 energy=-2.4263271467180747 pbc="F F F"
Th       0.00000000       0.00000000       0.00000000       0.00000000       0.00000000       0.57554179
Th       0.00000000       0.00000000       5.29454545       0.00000000       0.00000000      -0.57554179
2
Properties=species:S:1:pos:R:3:forces:R:3 energy=-2.3939490746710783 pbc="F F F"
Th       0.00000000       0.00000000       0.00000000       0.00000000       0.00000000       0.52515054
Th       0.00000000       0.00000000       5.35333333       0.00000000       0.00000000      -0.52515054
2
Properties=species:S:1:pos:R:3:forces:R:3 energy=-2.3642886098030993 pbc="F F F"
Th       0.00000000       0.00000000       0.00000000       0.00000000       0.00000000       0.48966661
Th       0.00000000       0.00000000       5.41212121       0.00000000       0.00000000      -0.48966661
2
Properties=species:S:1:pos:R:3:forces:R:3 energy=-2.335640645505816 pbc="F F F"
Th       0.00000000       0.00000000       0.00000000       0.00000000       0.00000000       0.48881808
Th       0.00000000       0.00000000       5.47090909       0.00000000       0.00000000      -0.48881808
2
Properties=species:S:1:pos:R:3:forces:R:3 energy=-2.3069517745178985 pbc="F F F"
Th       0.00000000       0.00000000       0.00000000       0.00000000       0.00000000       0.48124593
Th       0.00000000       0.00000000       5.52969697       0.00000000       0.00000000      -0.48124593
2
Properties=species:S:1:pos:R:3:forces:R:3 energy=-2.279863943292982 pbc="F F F"
Th       0.00000000       0.00000000       0.00000000       0.00000000       0.00000000       0.43562645
Th       0.00000000       0.00000000       5.58848485       0.00000000       0.00000000      -0.43562645
2
Properties=species:S:1:pos:R:3:forces:R:3 energy=-2.2556375145165433 pbc="F F F"
Th       0.00000000       0.00000000       0.00000000       0.00000000       0.00000000       0.39663407
Th       0.00000000       0.00000000       5.64727273       0.00000000       0.00000000      -0.39663407
2
Properties=species:S:1:pos:R:3:forces:R:3 energy=-2.231725084418254 pbc="F F F"
Th       0.00000000       0.00000000       0.00000000       0.00000000       0.00000000       0.43076530
Th       0.00000000       0.00000000       5.70606061       0.00000000       0.00000000      -0.43076530
2
Properties=species:S:1:pos:R:3:forces:R:3 energy=-2.204135685751868 pbc="F F F"
Th       0.00000000       0.00000000       0.00000000       0.00000000       0.00000000       0.50018197
Th       0.00000000       0.00000000       5.76484848       0.00000000       0.00000000      -0.50018197
2
Properties=species:S:1:pos:R:3:forces:R:3 energy=-2.1751393832132866 pbc="F F F"
Th       0.00000000       0.00000000       0.00000000       0.00000000       0.00000000       0.46024674
Th       0.00000000       0.00000000       5.82363636       0.00000000       0.00000000      -0.46024674
2
Properties=species:S:1:pos:R:3:forces:R:3 energy=-2.1528711651460113 pbc="F F F"
Th       0.00000000       0.00000000       0.00000000       0.00000000       0.00000000       0.28654385
Th       0.00000000       0.00000000       5.88242424       0.00000000       0.00000000      -0.28654385
2
Properties=species:S:1:pos:R:3:forces:R:3 energy=-2.141579216510816 pbc="F F F"
Th       0.00000000       0.00000000       0.00000000       0.00000000       0.00000000       0.10662659
Th       0.00000000       0.00000000       5.94121212       0.00000000       0.00000000      -0.10662659
2
Properties=species:S:1:pos:R:3:forces:R:3 energy=-2.1381398087952026 pbc="F F F"
Th       0.00000000       0.00000000       0.00000000       0.00000000       0.00000000       0.03418691
Th       0.00000000       0.00000000       6.00000000       0.00000000       0.00000000      -0.03418691
