2
Properties=species:S:1:pos:R:3:forces:R:3 energy=105062.63341166373 pbc="F F F"
Th       0.00000000       0.00000000       0.00000000       0.00000000       0.00000000 -2710171.00000000
Th       0.00000000       0.00000000       0.10000000       0.00000000       0.00000000 2710171.00000000
2
Properties=species:S:1:pos:R:3:forces:R:3 energy=28115.535755413737 pbc="F F F"
Th       0.00000000       0.00000000       0.00000000       0.00000000       0.00000000 -542689.12500000
Th       0.00000000       0.00000000       0.15959596       0.00000000       0.00000000  542689.12500000
2
Properties=species:S:1:pos:R:3:forces:R:3 energy=9881.827747601235 pbc="F F F"
Th       0.00000000       0.00000000       0.00000000       0.00000000       0.00000000 -159190.40625000
Th       0.00000000       0.00000000       0.21919192       0.00000000       0.00000000  159190.40625000
2
Properties=species:S:1:pos:R:3:forces:R:3 energy=4021.9461558043613 pbc="F F F"
Th       0.00000000       0.00000000       0.00000000       0.00000000       0.00000000  -57045.34765625
Th       0.00000000       0.00000000       0.27878788       0.00000000       0.00000000   57045.34765625
2
Properties=species:S:1:pos:R:3:forces:R:3 energy=1804.942981976236 pbc="F F F"
Th       0.00000000       0.00000000       0.00000000       0.00000000       0.00000000  -23023.25585938
Th       0.00000000       0.00000000       0.33838384       0.00000000       0.00000000   23023.25585938
2
Properties=species:S:1:pos:R:3:forces:R:3 energy=875.8341562926423 pbc="F F F"
Th       0.00000000       0.00000000       0.00000000       0.00000000       0.00000000  -10101.05761719
Th       0.00000000       0.00000000       0.39797980       0.00000000       0.00000000   10101.05761719
2
Properties=species:S:1:pos:R:3:forces:R:3 energy=455.71748760414175 pbc="F F F"
Th       0.00000000       0.00000000       0.00000000       0.00000000       0.00000000   -4739.79101562
Th       0.00000000       0.00000000       0.45757576       0.00000000       0.00000000    4739.79101562
2
Properties=species:S:1:pos:R:3:forces:R:3 energy=253.3846934273599 pbc="F F F"
Th       0.00000000       0.00000000       0.00000000       0.00000000       0.00000000   -2355.96679688
Th       0.00000000       0.00000000       0.51717172       0.00000000       0.00000000    2355.96679688
2
Properties=species:S:1:pos:R:3:forces:R:3 energy=150.51771957574937 pbc="F F F"
Th       0.00000000       0.00000000       0.00000000       0.00000000       0.00000000   -1230.11059570
Th       0.00000000       0.00000000       0.57676768       0.00000000       0.00000000    1230.11059570
2
Properties=species:S:1:pos:R:3:forces:R:3 energy=95.79580341503276 pbc="F F F"
Th       0.00000000       0.00000000       0.00000000       0.00000000       0.00000000    -668.36883545
Th       0.00000000       0.00000000       0.63636364       0.00000000       0.00000000     668.36883545
2
Properties=species:S:1:pos:R:3:forces:R:3 energy=65.64818995299858 pbc="F F F"
Th       0.00000000       0.00000000       0.00000000       0.00000000       0.00000000    -373.60671997
Th       0.00000000       0.00000000       0.69595960       0.00000000       0.00000000     373.60671997
2
Properties=species:S:1:pos:R:3:forces:R:3 energy=48.67219974628745 pbc="F F F"
Th       0.00000000       0.00000000       0.00000000       0.00000000       0.00000000    -211.53150940
Th       0.00000000       0.00000000       0.75555556       0.00000000       0.00000000     211.53150940
2
Properties=species:S:1:pos:R:3:forces:R:3 energy=39.079693489651504 pbc="F F F"
Th       0.00000000       0.00000000       0.00000000       0.00000000       0.00000000    -118.72630310
Th       0.00000000       0.00000000       0.81515152       0.00000000       0.00000000     118.72630310
2
Properties=species:S:1:pos:R:3:forces:R:3 energy=33.76083840674759 pbc="F F F"
Th       0.00000000       0.00000000       0.00000000       0.00000000       0.00000000     -64.65911865
Th       0.00000000       0.00000000       0.87474747       0.00000000       0.00000000      64.65911865
2
Properties=species:S:1:pos:R:3:forces:R:3 energy=30.91758460883176 pbc="F F F"
Th       0.00000000       0.00000000       0.00000000       0.00000000       0.00000000     -33.66382599
Th       0.00000000       0.00000000       0.93434343       0.00000000       0.00000000      33.66382599
2
Properties=species:S:1:pos:R:3:forces:R:3 energy=29.484887718170416 pbc="F F F"
Th       0.00000000       0.00000000       0.00000000       0.00000000       0.00000000     -16.12763977
Th       0.00000000       0.00000000       0.99393939       0.00000000       0.00000000      16.12763977
2
Properties=species:S:1:pos:R:3:forces:R:3 energy=28.81581897287469 pbc="F F F"
Th       0.00000000       0.00000000       0.00000000       0.00000000       0.00000000      -7.73108244
Th       0.00000000       0.00000000       1.05353535       0.00000000       0.00000000       7.73108244
2
Properties=species:S:1:pos:R:3:forces:R:3 energy=28.406691518722518 pbc="F F F"
Th       0.00000000       0.00000000       0.00000000       0.00000000       0.00000000      -7.21352100
Th       0.00000000       0.00000000       1.11313131       0.00000000       0.00000000       7.21352100
2
Properties=species:S:1:pos:R:3:forces:R:3 energy=27.82074163030002 pbc="F F F"
Th       0.00000000       0.00000000       0.00000000       0.00000000       0.00000000     -13.47808361
Th       0.00000000       0.00000000       1.17272727       0.00000000       0.00000000      13.47808361
2
Properties=species:S:1:pos:R:3:forces:R:3 energy=26.717719355704855 pbc="F F F"
Th       0.00000000       0.00000000       0.00000000       0.00000000       0.00000000     -23.73335838
Th       0.00000000       0.00000000       1.23232323       0.00000000       0.00000000      23.73335838
2
Properties=species:S:1:pos:R:3:forces:R:3 energy=25.005286196281748 pbc="F F F"
Th       0.00000000       0.00000000       0.00000000       0.00000000       0.00000000     -33.66970062
Th       0.00000000       0.00000000       1.29191919       0.00000000       0.00000000      33.66970062
2
Properties=species:S:1:pos:R:3:forces:R:3 energy=22.679604629937923 pbc="F F F"
Th       0.00000000       0.00000000       0.00000000       0.00000000       0.00000000     -44.70694733
Th       0.00000000       0.00000000       1.35151515       0.00000000       0.00000000      44.70694733
2
Properties=species:S:1:pos:R:3:forces:R:3 energy=19.6671960846558 pbc="F F F"
Th       0.00000000       0.00000000       0.00000000       0.00000000       0.00000000     -56.03753281
Th       0.00000000       0.00000000       1.41111111       0.00000000       0.00000000      56.03753281
2
Properties=species:S:1:pos:R:3:forces:R:3 energy=16.103835261561148 pbc="F F F"
Th       0.00000000       0.00000000       0.00000000       0.00000000       0.00000000     -62.22622681
Th       0.00000000       0.00000000       1.47070707       0.00000000       0.00000000      62.22622681
2
Properties=species:S:1:pos:R:3:forces:R:3 energy=12.426204022132094 pbc="F F F"
Th       0.00000000       0.00000000       0.00000000       0.00000000       0.00000000     -59.85339737
Th       0.00000000       0.00000000       1.53030303       0.00000000       0.00000000      59.85339737
2
Properties=species:S:1:pos:R:3:forces:R:3 energy=9.074379333755742 pbc="F F F"
Th       0.00000000       0.00000000       0.00000000       0.00000000       0.00000000     -52.24949646
Th       0.00000000       0.00000000       1.58989899       0.00000000       0.00000000      52.24949646
2
Properties=species:S:1:pos:R:3:forces:R:3 energy=6.205977035451227 pbc="F F F"
Th       0.00000000       0.00000000       0.00000000       0.00000000       0.00000000     -44.09463120
Th       0.00000000       0.00000000       1.64949495       0.00000000       0.00000000      44.09463120
2
Properties=species:S:1:pos:R:3:forces:R:3 energy=3.815034694371835 pbc="F F F"
Th       0.00000000       0.00000000       0.00000000       0.00000000       0.00000000     -36.07855225
Th       0.00000000       0.00000000       1.70909091       0.00000000       0.00000000      36.07855225
2
Properties=species:S:1:pos:R:3:forces:R:3 energy=1.914701774732795 pbc="F F F"
Th       0.00000000       0.00000000       0.00000000       0.00000000       0.00000000     -27.71379662
Th       0.00000000       0.00000000       1.76868687       0.00000000       0.00000000      27.71379662
2
Properties=species:S:1:pos:R:3:forces:R:3 energy=0.48907097860106613 pbc="F F F"
Th       0.00000000       0.00000000       0.00000000       0.00000000       0.00000000     -20.45986748
Th       0.00000000       0.00000000       1.82828283       0.00000000       0.00000000      20.45986748
2
Properties=species:S:1:pos:R:3:forces:R:3 energy=-0.567254758890562 pbc="F F F"
Th       0.00000000       0.00000000       0.00000000       0.00000000       0.00000000     -15.32940960
Th       0.00000000       0.00000000       1.88787879       0.00000000       0.00000000      15.32940960
2
Properties=species:S:1:pos:R:3:forces:R:3 energy=-1.3728272223686508 pbc="F F F"
Th       0.00000000       0.00000000       0.00000000       0.00000000       0.00000000     -11.96051979
Th       0.00000000       0.00000000       1.94747475       0.00000000       0.00000000      11.96051979
2
Properties=species:S:1:pos:R:3:forces:R:3 energy=-2.0219893996850797 pbc="F F F"
Th       0.00000000       0.00000000       0.00000000       0.00000000       0.00000000     -10.06779957
Th       0.00000000       0.00000000       2.00707071       0.00000000       0.00000000      10.06779957
2
Properties=species:S:1:pos:R:3:forces:R:3 energy=-2.6009892019903385 pbc="F F F"
Th       0.00000000       0.00000000       0.00000000       0.00000000       0.00000000      -9.57973194
Th       0.00000000       0.00000000       2.06666667       0.00000000       0.00000000       9.57973194
2
Properties=species:S:1:pos:R:3:forces:R:3 energy=-3.1843506010790237 pbc="F F F"
Th       0.00000000       0.00000000       0.00000000       0.00000000       0.00000000     -10.10991192
Th       0.00000000       0.00000000       2.12626263       0.00000000       0.00000000      10.10991192
2
Properties=species:S:1:pos:R:3:forces:R:3 energy=-3.8105677404006135 pbc="F F F"
Th       0.00000000       0.00000000       0.00000000       0.00000000       0.00000000     -10.86810970
Th       0.00000000       0.00000000       2.18585859       0.00000000       0.00000000      10.86810970
2
Properties=species:S:1:pos:R:3:forces:R:3 energy=-4.467706071126637 pbc="F F F"
Th       0.00000000       0.00000000       0.00000000       0.00000000       0.00000000     -11.03642464
Th       0.00000000       0.00000000       2.24545455       0.00000000       0.00000000      11.03642464
2
Properties=species:S:1:pos:R:3:forces:R:3 energy=-5.106311526116123 pbc="F F F"
Th       0.00000000       0.00000000       0.00000000       0.00000000       0.00000000     -10.23270702
Th       0.00000000       0.00000000       2.30505051       0.00000000       0.00000000      10.23270702
2
Properties=species:S:1:pos:R:3:forces:R:3 energy=-5.67126064482178 pbc="F F F"
Th       0.00000000       0.00000000       0.00000000       0.00000000       0.00000000      -8.62775326
Th       0.00000000       0.00000000       2.36464646       0.00000000       0.00000000       8.62775326
2
Properties=species:S:1:pos:R:3:forces:R:3 energy=-6.127649229359161 pbc="F F F"
Th       0.00000000       0.00000000       0.00000000       0.00000000       0.00000000      -6.66671753
Th       0.00000000       0.00000000       2.42424242       0.00000000       0.00000000       6.66671753
2
Properties=species:S:1:pos:R:3:forces:R:3 energy=-6.466728464946555 pbc="F F F"
Th       0.00000000       0.00000000       0.00000000       0.00000000       0.00000000      -4.74168491
Th       0.00000000       0.00000000       2.48383838       0.00000000       0.00000000       4.74168491
2
Properties=species:S:1:pos:R:3:forces:R:3 energy=-6.697790632669001 pbc="F F F"
Th       0.00000000       0.00000000       0.00000000       0.00000000       0.00000000      -3.06178570
Th       0.00000000       0.00000000       2.54343434       0.00000000       0.00000000       3.06178570
2
Properties=species:S:1:pos:R:3:forces:R:3 energy=-6.837766404692353 pbc="F F F"
Th       0.00000000       0.00000000       0.00000000       0.00000000       0.00000000      -1.68655336
Th       0.00000000       0.00000000       2.60303030       0.00000000       0.00000000       1.68655336
2
Properties=species:S:1:pos:R:3:forces:R:3 energy=-6.904563817301315 pbc="F F F"
Th       0.00000000       0.00000000       0.00000000       0.00000000       0.00000000      -0.60010600
Th       0.00000000       0.00000000       2.66262626       0.00000000       0.00000000       0.60010600
2
Properties=species:S:1:pos:R:3:forces:R:3 energy=-6.914198791594266 pbc="F F F"
Th       0.00000000       0.00000000       0.00000000       0.00000000       0.00000000       0.23978591
Th       0.00000000       0.00000000       2.72222222       0.00000000       0.00000000      -0.23978591
2
Properties=species:S:1:pos:R:3:forces:R:3 energy=-6.879877698790876 pbc="F F F"
Th       0.00000000       0.00000000       0.00000000       0.00000000       0.00000000       0.88371009
Th       0.00000000       0.00000000       2.78181818       0.00000000       0.00000000      -0.88371009
2
Properties=species:S:1:pos:R:3:forces:R:3 energy=-6.8117053204793745 pbc="F F F"
Th       0.00000000       0.00000000       0.00000000       0.00000000       0.00000000       1.38447225
Th       0.00000000       0.00000000       2.84141414       0.00000000       0.00000000      -1.38447225
2
Properties=species:S:1:pos:R:3:forces:R:3 energy=-6.716774760099361 pbc="F F F"
Th       0.00000000       0.00000000       0.00000000       0.00000000       0.00000000       1.78836107
Th       0.00000000       0.00000000       2.90101010       0.00000000       0.00000000      -1.78836107
2
Properties=species:S:1:pos:R:3:forces:R:3 energy=-6.599874917229111 pbc="F F F"
Th       0.00000000       0.00000000       0.00000000       0.00000000       0.00000000       2.12471342
Th       0.00000000       0.00000000       2.96060606       0.00000000       0.00000000      -2.12471342
2
Properties=species:S:1:pos:R:3:forces:R:3 energy=-6.464681626806766 pbc="F F F"
Th       0.00000000       0.00000000       0.00000000       0.00000000       0.00000000       2.40230703
Th       0.00000000       0.00000000       3.02020202       0.00000000       0.00000000      -2.40230703
2
Properties=species:S:1:pos:R:3:forces:R:3 energy=-6.314808633569595 pbc="F F F"
Th       0.00000000       0.00000000       0.00000000       0.00000000       0.00000000       2.61600161
Th       0.00000000       0.00000000       3.07979798       0.00000000       0.00000000      -2.61600161
2
Properties=species:S:1:pos:R:3:forces:R:3 energy=-6.154294995657406 pbc="F F F"
Th       0.00000000       0.00000000       0.00000000       0.00000000       0.00000000       2.75856161
Th       0.00000000       0.00000000       3.13939394       0.00000000       0.00000000      -2.75856161
2
Properties=species:S:1:pos:R:3:forces:R:3 energy=-5.987421738389311 pbc="F F F"
Th       0.00000000       0.00000000       0.00000000       0.00000000       0.00000000       2.83039927
Th       0.00000000       0.00000000       3.19898990       0.00000000       0.00000000      -2.83039927
2
Properties=species:S:1:pos:R:3:forces:R:3 energy=-5.818112322572218 pbc="F F F"
Th       0.00000000       0.00000000       0.00000000       0.00000000       0.00000000       2.84322405
Th       0.00000000       0.00000000       3.25858586       0.00000000       0.00000000      -2.84322405
2
Properties=species:S:1:pos:R:3:forces:R:3 energy=-5.649308574030523 pbc="F F F"
Th       0.00000000       0.00000000       0.00000000       0.00000000       0.00000000       2.81706834
Th       0.00000000       0.00000000       3.31818182       0.00000000       0.00000000      -2.81706834
2
Properties=species:S:1:pos:R:3:forces:R:3 energy=-5.482685940466744 pbc="F F F"
Th       0.00000000       0.00000000       0.00000000       0.00000000       0.00000000       2.77341199
Th       0.00000000       0.00000000       3.37777778       0.00000000       0.00000000      -2.77341199
2
Properties=species:S:1:pos:R:3:forces:R:3 energy=-5.3187656195496205 pbc="F F F"
Th       0.00000000       0.00000000       0.00000000       0.00000000       0.00000000       2.72817564
Th       0.00000000       0.00000000       3.43737374       0.00000000       0.00000000      -2.72817564
2
Properties=species:S:1:pos:R:3:forces:R:3 energy=-5.157403144275042 pbc="F F F"
Th       0.00000000       0.00000000       0.00000000       0.00000000       0.00000000       2.68786311
Th       0.00000000       0.00000000       3.49696970       0.00000000       0.00000000      -2.68786311
2
Properties=species:S:1:pos:R:3:forces:R:3 energy=-4.998331399118931 pbc="F F F"
Th       0.00000000       0.00000000       0.00000000       0.00000000       0.00000000       2.65045857
Th       0.00000000       0.00000000       3.55656566       0.00000000       0.00000000      -2.65045857
2
Properties=species:S:1:pos:R:3:forces:R:3 energy=-4.84155106097079 pbc="F F F"
Th       0.00000000       0.00000000       0.00000000       0.00000000       0.00000000       2.60999227
Th       0.00000000       0.00000000       3.61616162       0.00000000       0.00000000      -2.60999227
2
Properties=species:S:1:pos:R:3:forces:R:3 energy=-4.687400407428131 pbc="F F F"
Th       0.00000000       0.00000000       0.00000000       0.00000000       0.00000000       2.56172132
Th       0.00000000       0.00000000       3.67575758       0.00000000       0.00000000      -2.56172132
2
Properties=species:S:1:pos:R:3:forces:R:3 energy=-4.536391259471471 pbc="F F F"
Th       0.00000000       0.00000000       0.00000000       0.00000000       0.00000000       2.50470304
Th       0.00000000       0.00000000       3.73535354       0.00000000       0.00000000      -2.50470304
2
Properties=species:S:1:pos:R:3:forces:R:3 energy=-4.388999071744423 pbc="F F F"
Th       0.00000000       0.00000000       0.00000000       0.00000000       0.00000000       2.44068217
Th       0.00000000       0.00000000       3.79494949       0.00000000       0.00000000      -2.44068217
2
Properties=species:S:1:pos:R:3:forces:R:3 energy=-4.245587330857439 pbc="F F F"
Th       0.00000000       0.00000000       0.00000000       0.00000000       0.00000000       2.37122250
Th       0.00000000       0.00000000       3.85454545       0.00000000       0.00000000      -2.37122250
2
Properties=species:S:1:pos:R:3:forces:R:3 energy=-4.106483935696242 pbc="F F F"
Th       0.00000000       0.00000000       0.00000000       0.00000000       0.00000000       2.29596233
Th       0.00000000       0.00000000       3.91414141       0.00000000       0.00000000      -2.29596233
2
Properties=species:S:1:pos:R:3:forces:R:3 energy=-3.9720825886743887 pbc="F F F"
Th       0.00000000       0.00000000       0.00000000       0.00000000       0.00000000       2.21288705
Th       0.00000000       0.00000000       3.97373737       0.00000000       0.00000000      -2.21288705
2
Properties=species:S:1:pos:R:3:forces:R:3 energy=-3.8429196678860458 pbc="F F F"
Th       0.00000000       0.00000000       0.00000000       0.00000000       0.00000000       2.12001514
Th       0.00000000       0.00000000       4.03333333       0.00000000       0.00000000      -2.12001514
2
Properties=species:S:1:pos:R:3:forces:R:3 energy=-3.7195971418772107 pbc="F F F"
Th       0.00000000       0.00000000       0.00000000       0.00000000       0.00000000       2.01697969
Th       0.00000000       0.00000000       4.09292929       0.00000000       0.00000000      -2.01697969
2
Properties=species:S:1:pos:R:3:forces:R:3 energy=-3.6026758404856487 pbc="F F F"
Th       0.00000000       0.00000000       0.00000000       0.00000000       0.00000000       1.90571141
Th       0.00000000       0.00000000       4.15252525       0.00000000       0.00000000      -1.90571141
2
Properties=species:S:1:pos:R:3:forces:R:3 energy=-3.4925432275641577 pbc="F F F"
Th       0.00000000       0.00000000       0.00000000       0.00000000       0.00000000       1.78990102
Th       0.00000000       0.00000000       4.21212121       0.00000000       0.00000000      -1.78990102
2
Properties=species:S:1:pos:R:3:forces:R:3 energy=-3.3893422952231953 pbc="F F F"
Th       0.00000000       0.00000000       0.00000000       0.00000000       0.00000000       1.67363906
Th       0.00000000       0.00000000       4.27171717       0.00000000       0.00000000      -1.67363906
2
Properties=species:S:1:pos:R:3:forces:R:3 energy=-3.2930043475534583 pbc="F F F"
Th       0.00000000       0.00000000       0.00000000       0.00000000       0.00000000       1.56004798
Th       0.00000000       0.00000000       4.33131313       0.00000000       0.00000000      -1.56004798
2
Properties=species:S:1:pos:R:3:forces:R:3 energy=-3.203315795841897 pbc="F F F"
Th       0.00000000       0.00000000       0.00000000       0.00000000       0.00000000       1.45054281
Th       0.00000000       0.00000000       4.39090909       0.00000000       0.00000000      -1.45054281
2
Properties=species:S:1:pos:R:3:forces:R:3 energy=-3.1200294937125124 pbc="F F F"
Th       0.00000000       0.00000000       0.00000000       0.00000000       0.00000000       1.34507239
Th       0.00000000       0.00000000       4.45050505       0.00000000       0.00000000      -1.34507239
2
Properties=species:S:1:pos:R:3:forces:R:3 energy=-3.0429299774539103 pbc="F F F"
Th       0.00000000       0.00000000       0.00000000       0.00000000       0.00000000       1.24283946
Th       0.00000000       0.00000000       4.51010101       0.00000000       0.00000000      -1.24283946
2
Properties=species:S:1:pos:R:3:forces:R:3 energy=-2.9718426376310045 pbc="F F F"
Th       0.00000000       0.00000000       0.00000000       0.00000000       0.00000000       1.14316308
Th       0.00000000       0.00000000       4.56969697       0.00000000       0.00000000      -1.14316308
2
Properties=species:S:1:pos:R:3:forces:R:3 energy=-2.9066215874159624 pbc="F F F"
Th       0.00000000       0.00000000       0.00000000       0.00000000       0.00000000       1.04610741
Th       0.00000000       0.00000000       4.62929293       0.00000000       0.00000000      -1.04610741
2
Properties=species:S:1:pos:R:3:forces:R:3 energy=-2.847080858653249 pbc="F F F"
Th       0.00000000       0.00000000       0.00000000       0.00000000       0.00000000       0.95289171
Th       0.00000000       0.00000000       4.68888889       0.00000000       0.00000000      -0.95289171
2
Properties=species:S:1:pos:R:3:forces:R:3 energy=-2.792921353075661 pbc="F F F"
Th       0.00000000       0.00000000       0.00000000       0.00000000       0.00000000       0.86592507
Th       0.00000000       0.00000000       4.74848485       0.00000000       0.00000000      -0.86592507
2
Properties=species:S:1:pos:R:3:forces:R:3 energy=-2.743677579926523 pbc="F F F"
Th       0.00000000       0.00000000       0.00000000       0.00000000       0.00000000       0.78863472
Th       0.00000000       0.00000000       4.80808081       0.00000000       0.00000000      -0.78863472
2
Properties=species:S:1:pos:R:3:forces:R:3 energy=-2.6986565534472575 pbc="F F F"
Th       0.00000000       0.00000000       0.00000000       0.00000000       0.00000000       0.72470301
Th       0.00000000       0.00000000       4.86767677       0.00000000       0.00000000      -0.72470301
2
Properties=species:S:1:pos:R:3:forces:R:3 energy=-2.6569710954507215 pbc="F F F"
Th       0.00000000       0.00000000       0.00000000       0.00000000       0.00000000       0.67710286
Th       0.00000000       0.00000000       4.92727273       0.00000000       0.00000000      -0.67710286
2
Properties=species:S:1:pos:R:3:forces:R:3 energy=-2.617604208337569 pbc="F F F"
Th       0.00000000       0.00000000       0.00000000       0.00000000       0.00000000       0.64685416
Th       0.00000000       0.00000000       4.98686869       0.00000000       0.00000000      -0.64685416
2
Properties=species:S:1:pos:R:3:forces:R:3 energy=-2.5795657097670746 pbc="F F F"
Th       0.00000000       0.00000000       0.00000000       0.00000000       0.00000000       0.63207787
Th       0.00000000       0.00000000       5.04646465       0.00000000       0.00000000      -0.63207787
2
Properties=species:S:1:pos:R:3:forces:R:3 energy=-2.542061716588653 pbc="F F F"
Th       0.00000000       0.00000000       0.00000000       0.00000000       0.00000000       0.62762463
Th       0.00000000       0.00000000       5.10606061       0.00000000       0.00000000      -0.62762463
2
Properties=species:S:1:pos:R:3:forces:R:3 energy=-2.504709221563051 pbc="F F F"
Th       0.00000000       0.00000000       0.00000000       0.00000000       0.00000000       0.62521940
Th       0.00000000       0.00000000       5.16565657       0.00000000       0.00000000      -0.62521940
2
Properties=species:S:1:pos:R:3:forces:R:3 energy=-2.4677141033419154 pbc="F F F"
Th       0.00000000       0.00000000       0.00000000       0.00000000       0.00000000       0.61388934
Th       0.00000000       0.00000000       5.22525253       0.00000000       0.00000000      -0.61388934
2
Properties=species:S:1:pos:R:3:forces:R:3 energy=-2.431942080169702 pbc="F F F"
Th       0.00000000       0.00000000       0.00000000       0.00000000       0.00000000       0.58276767
Th       0.00000000       0.00000000       5.28484848       0.00000000       0.00000000      -0.58276767
2
Properties=species:S:1:pos:R:3:forces:R:3 energy=-2.3986486133117744 pbc="F F F"
Th       0.00000000       0.00000000       0.00000000       0.00000000       0.00000000       0.53280669
Th       0.00000000       0.00000000       5.34444444       0.00000000       0.00000000      -0.53280669
2
Properties=species:S:1:pos:R:3:forces:R:3 energy=-2.3682501460469636 pbc="F F F"
Th       0.00000000       0.00000000       0.00000000       0.00000000       0.00000000       0.49234593
Th       0.00000000       0.00000000       5.40404040       0.00000000       0.00000000      -0.49234593
2
Properties=species:S:1:pos:R:3:forces:R:3 energy=-2.3391827812581236 pbc="F F F"
Th       0.00000000       0.00000000       0.00000000       0.00000000       0.00000000       0.48805171
Th       0.00000000       0.00000000       5.46363636       0.00000000       0.00000000      -0.48805171
2
Properties=species:S:1:pos:R:3:forces:R:3 energy=-2.310078433173636 pbc="F F F"
Th       0.00000000       0.00000000       0.00000000       0.00000000       0.00000000       0.48401171
Th       0.00000000       0.00000000       5.52323232       0.00000000       0.00000000      -0.48401171
2
Properties=species:S:1:pos:R:3:forces:R:3 energy=-2.282344497386359 pbc="F F F"
Th       0.00000000       0.00000000       0.00000000       0.00000000       0.00000000       0.44090858
Th       0.00000000       0.00000000       5.58282828       0.00000000       0.00000000      -0.44090858
2
Properties=species:S:1:pos:R:3:forces:R:3 energy=-2.257554376176388 pbc="F F F"
Th       0.00000000       0.00000000       0.00000000       0.00000000       0.00000000       0.39774606
Th       0.00000000       0.00000000       5.64242424       0.00000000       0.00000000      -0.39774606
2
Properties=species:S:1:pos:R:3:forces:R:3 energy=-2.233431136148311 pbc="F F F"
Th       0.00000000       0.00000000       0.00000000       0.00000000       0.00000000       0.42616010
Th       0.00000000       0.00000000       5.70202020       0.00000000       0.00000000      -0.42616010
2
Properties=species:S:1:pos:R:3:forces:R:3 energy=-2.205812421111631 pbc="F F F"
Th       0.00000000       0.00000000       0.00000000       0.00000000       0.00000000       0.49748421
Th       0.00000000       0.00000000       5.76161616       0.00000000       0.00000000      -0.49748421
2
Properties=species:S:1:pos:R:3:forces:R:3 energy=-2.1763037938399776 pbc="F F F"
Th       0.00000000       0.00000000       0.00000000       0.00000000       0.00000000       0.46470591
Th       0.00000000       0.00000000       5.82121212       0.00000000       0.00000000      -0.46470591
2
Properties=species:S:1:pos:R:3:forces:R:3 energy=-2.1533900874316743 pbc="F F F"
Th       0.00000000       0.00000000       0.00000000       0.00000000       0.00000000       0.29200444
Th       0.00000000       0.00000000       5.88080808       0.00000000       0.00000000      -0.29200444
2
Properties=species:S:1:pos:R:3:forces:R:3 energy=-2.1416496038807895 pbc="F F F"
Th       0.00000000       0.00000000       0.00000000       0.00000000       0.00000000       0.10865977
Th       0.00000000       0.00000000       5.94040404       0.00000000       0.00000000      -0.10865977
2
Properties=species:S:1:pos:R:3:forces:R:3 energy=-2.1381398087952026 pbc="F F F"
Th       0.00000000       0.00000000       0.00000000       0.00000000       0.00000000       0.03418691
Th       0.00000000       0.00000000       6.00000000       0.00000000       0.00000000      -0.03418691
