2
Properties=species:S:1:pos:R:3:forces:R:3 energy=2667.762823613207 pbc="F F F"
Ti       0.00000000       0.00000000       0.00000000       0.00000000       0.00000000  -40407.88281250
Ti       0.00000000       0.00000000       0.18000000       0.00000000       0.00000000   40407.88281250
2
Properties=species:S:1:pos:R:3:forces:R:3 energy=1186.2463441210193 pbc="F F F"
Ti       0.00000000       0.00000000       0.00000000       0.00000000       0.00000000  -14970.34277344
Ti       0.00000000       0.00000000       0.23878788       0.00000000       0.00000000   14970.34277344
2
Properties=species:S:1:pos:R:3:forces:R:3 energy=595.1226258624685 pbc="F F F"
Ti       0.00000000       0.00000000       0.00000000       0.00000000       0.00000000   -6513.39892578
Ti       0.00000000       0.00000000       0.29757576       0.00000000       0.00000000    6513.39892578
2
Properties=species:S:1:pos:R:3:forces:R:3 energy=324.94837049137465 pbc="F F F"
Ti       0.00000000       0.00000000       0.00000000       0.00000000       0.00000000   -3147.64501953
Ti       0.00000000       0.00000000       0.35636364       0.00000000       0.00000000    3147.64501953
2
Properties=species:S:1:pos:R:3:forces:R:3 energy=189.89182142544468 pbc="F F F"
Ti       0.00000000       0.00000000       0.00000000       0.00000000       0.00000000   -1634.19348145
Ti       0.00000000       0.00000000       0.41515152       0.00000000       0.00000000    1634.19348145
2
Properties=species:S:1:pos:R:3:forces:R:3 energy=118.0210175987725 pbc="F F F"
Ti       0.00000000       0.00000000       0.00000000       0.00000000       0.00000000    -894.20812988
Ti       0.00000000       0.00000000       0.47393939       0.00000000       0.00000000     894.20812988
2
Properties=species:S:1:pos:R:3:forces:R:3 energy=77.90791947958382 pbc="F F F"
Ti       0.00000000       0.00000000       0.00000000       0.00000000       0.00000000    -510.63269043
Ti       0.00000000       0.00000000       0.53272727       0.00000000       0.00000000     510.63269043
2
Properties=species:S:1:pos:R:3:forces:R:3 energy=54.58470402981073 pbc="F F F"
Ti       0.00000000       0.00000000       0.00000000       0.00000000       0.00000000    -303.38146973
Ti       0.00000000       0.00000000       0.59151515       0.00000000       0.00000000     303.38146973
2
Properties=species:S:1:pos:R:3:forces:R:3 energy=40.45965068106981 pbc="F F F"
Ti       0.00000000       0.00000000       0.00000000       0.00000000       0.00000000    -188.17276001
Ti       0.00000000       0.00000000       0.65030303       0.00000000       0.00000000     188.17276001
2
Properties=species:S:1:pos:R:3:forces:R:3 energy=31.488093162084795 pbc="F F F"
Ti       0.00000000       0.00000000       0.00000000       0.00000000       0.00000000    -123.19871521
Ti       0.00000000       0.00000000       0.70909091       0.00000000       0.00000000     123.19871521
2
Properties=species:S:1:pos:R:3:forces:R:3 energy=25.42065708003943 pbc="F F F"
Ti       0.00000000       0.00000000       0.00000000       0.00000000       0.00000000     -86.80329132
Ti       0.00000000       0.00000000       0.76787879       0.00000000       0.00000000      86.80329132
2
Properties=species:S:1:pos:R:3:forces:R:3 energy=20.95198740092609 pbc="F F F"
Ti       0.00000000       0.00000000       0.00000000       0.00000000       0.00000000     -67.42472076
Ti       0.00000000       0.00000000       0.82666667       0.00000000       0.00000000      67.42472076
2
Properties=species:S:1:pos:R:3:forces:R:3 energy=17.284282159644878 pbc="F F F"
Ti       0.00000000       0.00000000       0.00000000       0.00000000       0.00000000     -58.77417755
Ti       0.00000000       0.00000000       0.88545455       0.00000000       0.00000000      58.77417755
2
Properties=species:S:1:pos:R:3:forces:R:3 energy=13.915181053444375 pbc="F F F"
Ti       0.00000000       0.00000000       0.00000000       0.00000000       0.00000000     -56.54019547
Ti       0.00000000       0.00000000       0.94424242       0.00000000       0.00000000      56.54019547
2
Properties=species:S:1:pos:R:3:forces:R:3 energy=10.589838497968962 pbc="F F F"
Ti       0.00000000       0.00000000       0.00000000       0.00000000       0.00000000     -56.87720108
Ti       0.00000000       0.00000000       1.00303030       0.00000000       0.00000000      56.87720108
2
Properties=species:S:1:pos:R:3:forces:R:3 energy=7.194720560706482 pbc="F F F"
Ti       0.00000000       0.00000000       0.00000000       0.00000000       0.00000000     -58.69178772
Ti       0.00000000       0.00000000       1.06181818       0.00000000       0.00000000      58.69178772
2
Properties=species:S:1:pos:R:3:forces:R:3 energy=3.741415392128563 pbc="F F F"
Ti       0.00000000       0.00000000       0.00000000       0.00000000       0.00000000     -57.88263321
Ti       0.00000000       0.00000000       1.12060606       0.00000000       0.00000000      57.88263321
2
Properties=species:S:1:pos:R:3:forces:R:3 energy=0.5174639745554657 pbc="F F F"
Ti       0.00000000       0.00000000       0.00000000       0.00000000       0.00000000     -50.70889664
Ti       0.00000000       0.00000000       1.17939394       0.00000000       0.00000000      50.70889664
2
Properties=species:S:1:pos:R:3:forces:R:3 energy=-2.113164057882856 pbc="F F F"
Ti       0.00000000       0.00000000       0.00000000       0.00000000       0.00000000     -38.12236023
Ti       0.00000000       0.00000000       1.23818182       0.00000000       0.00000000      38.12236023
2
Properties=species:S:1:pos:R:3:forces:R:3 energy=-3.9329176171860394 pbc="F F F"
Ti       0.00000000       0.00000000       0.00000000       0.00000000       0.00000000     -24.00912857
Ti       0.00000000       0.00000000       1.29696970       0.00000000       0.00000000      24.00912857
2
Properties=species:S:1:pos:R:3:forces:R:3 energy=-5.020478306198156 pbc="F F F"
Ti       0.00000000       0.00000000       0.00000000       0.00000000       0.00000000     -14.03742504
Ti       0.00000000       0.00000000       1.35575758       0.00000000       0.00000000      14.03742504
2
Properties=species:S:1:pos:R:3:forces:R:3 energy=-5.699711182956979 pbc="F F F"
Ti       0.00000000       0.00000000       0.00000000       0.00000000       0.00000000      -9.82477093
Ti       0.00000000       0.00000000       1.41454545       0.00000000       0.00000000       9.82477093
2
Properties=species:S:1:pos:R:3:forces:R:3 energy=-6.232830749715932 pbc="F F F"
Ti       0.00000000       0.00000000       0.00000000       0.00000000       0.00000000      -8.57830048
Ti       0.00000000       0.00000000       1.47333333       0.00000000       0.00000000       8.57830048
2
Properties=species:S:1:pos:R:3:forces:R:3 energy=-6.721574359992256 pbc="F F F"
Ti       0.00000000       0.00000000       0.00000000       0.00000000       0.00000000      -8.04870033
Ti       0.00000000       0.00000000       1.53212121       0.00000000       0.00000000       8.04870033
2
Properties=species:S:1:pos:R:3:forces:R:3 energy=-7.172793487339377 pbc="F F F"
Ti       0.00000000       0.00000000       0.00000000       0.00000000       0.00000000      -7.22991896
Ti       0.00000000       0.00000000       1.59090909       0.00000000       0.00000000       7.22991896
2
Properties=species:S:1:pos:R:3:forces:R:3 energy=-7.565009800417067 pbc="F F F"
Ti       0.00000000       0.00000000       0.00000000       0.00000000       0.00000000      -6.07866764
Ti       0.00000000       0.00000000       1.64969697       0.00000000       0.00000000       6.07866764
2
Properties=species:S:1:pos:R:3:forces:R:3 energy=-7.8849397392305125 pbc="F F F"
Ti       0.00000000       0.00000000       0.00000000       0.00000000       0.00000000      -4.78916740
Ti       0.00000000       0.00000000       1.70848485       0.00000000       0.00000000       4.78916740
2
Properties=species:S:1:pos:R:3:forces:R:3 energy=-8.126494936070001 pbc="F F F"
Ti       0.00000000       0.00000000       0.00000000       0.00000000       0.00000000      -3.42162299
Ti       0.00000000       0.00000000       1.76727273       0.00000000       0.00000000       3.42162299
2
Properties=species:S:1:pos:R:3:forces:R:3 energy=-8.287910890709563 pbc="F F F"
Ti       0.00000000       0.00000000       0.00000000       0.00000000       0.00000000      -2.08892632
Ti       0.00000000       0.00000000       1.82606061       0.00000000       0.00000000       2.08892632
2
Properties=species:S:1:pos:R:3:forces:R:3 energy=-8.375393206275564 pbc="F F F"
Ti       0.00000000       0.00000000       0.00000000       0.00000000       0.00000000      -0.92001510
Ti       0.00000000       0.00000000       1.88484848       0.00000000       0.00000000       0.92001510
2
Properties=species:S:1:pos:R:3:forces:R:3 energy=-8.39994946416067 pbc="F F F"
Ti       0.00000000       0.00000000       0.00000000       0.00000000       0.00000000       0.05281621
Ti       0.00000000       0.00000000       1.94363636       0.00000000       0.00000000      -0.05281621
2
Properties=species:S:1:pos:R:3:forces:R:3 energy=-8.372797817552295 pbc="F F F"
Ti       0.00000000       0.00000000       0.00000000       0.00000000       0.00000000       0.84046483
Ti       0.00000000       0.00000000       2.00242424       0.00000000       0.00000000      -0.84046483
2
Properties=species:S:1:pos:R:3:forces:R:3 energy=-8.304823539624243 pbc="F F F"
Ti       0.00000000       0.00000000       0.00000000       0.00000000       0.00000000       1.43922627
Ti       0.00000000       0.00000000       2.06121212       0.00000000       0.00000000      -1.43922627
2
Properties=species:S:1:pos:R:3:forces:R:3 energy=-8.207583575053361 pbc="F F F"
Ti       0.00000000       0.00000000       0.00000000       0.00000000       0.00000000       1.83453953
Ti       0.00000000       0.00000000       2.12000000       0.00000000       0.00000000      -1.83453953
2
Properties=species:S:1:pos:R:3:forces:R:3 energy=-8.09299064874559 pbc="F F F"
Ti       0.00000000       0.00000000       0.00000000       0.00000000       0.00000000       2.03403687
Ti       0.00000000       0.00000000       2.17878788       0.00000000       0.00000000      -2.03403687
2
Properties=species:S:1:pos:R:3:forces:R:3 energy=-7.971395917478397 pbc="F F F"
Ti       0.00000000       0.00000000       0.00000000       0.00000000       0.00000000       2.08258033
Ti       0.00000000       0.00000000       2.23757576       0.00000000       0.00000000      -2.08258033
2
Properties=species:S:1:pos:R:3:forces:R:3 energy=-7.849896142152653 pbc="F F F"
Ti       0.00000000       0.00000000       0.00000000       0.00000000       0.00000000       2.04052377
Ti       0.00000000       0.00000000       2.29636364       0.00000000       0.00000000      -2.04052377
2
Properties=species:S:1:pos:R:3:forces:R:3 energy=-7.732269184096308 pbc="F F F"
Ti       0.00000000       0.00000000       0.00000000       0.00000000       0.00000000       1.95781922
Ti       0.00000000       0.00000000       2.35515152       0.00000000       0.00000000      -1.95781922
2
Properties=species:S:1:pos:R:3:forces:R:3 energy=-7.619769157745079 pbc="F F F"
Ti       0.00000000       0.00000000       0.00000000       0.00000000       0.00000000       1.87170613
Ti       0.00000000       0.00000000       2.41393939       0.00000000       0.00000000      -1.87170613
2
Properties=species:S:1:pos:R:3:forces:R:3 energy=-7.511635336172986 pbc="F F F"
Ti       0.00000000       0.00000000       0.00000000       0.00000000       0.00000000       1.81425786
Ti       0.00000000       0.00000000       2.47272727       0.00000000       0.00000000      -1.81425786
2
Properties=species:S:1:pos:R:3:forces:R:3 energy=-7.405402621713883 pbc="F F F"
Ti       0.00000000       0.00000000       0.00000000       0.00000000       0.00000000       1.80993664
Ti       0.00000000       0.00000000       2.53151515       0.00000000       0.00000000      -1.80993664
2
Properties=species:S:1:pos:R:3:forces:R:3 energy=-7.2976546257495665 pbc="F F F"
Ti       0.00000000       0.00000000       0.00000000       0.00000000       0.00000000       1.86473596
Ti       0.00000000       0.00000000       2.59030303       0.00000000       0.00000000      -1.86473596
2
Properties=species:S:1:pos:R:3:forces:R:3 energy=-7.185376931387465 pbc="F F F"
Ti       0.00000000       0.00000000       0.00000000       0.00000000       0.00000000       1.95840061
Ti       0.00000000       0.00000000       2.64909091       0.00000000       0.00000000      -1.95840061
2
Properties=species:S:1:pos:R:3:forces:R:3 energy=-7.0674771894707735 pbc="F F F"
Ti       0.00000000       0.00000000       0.00000000       0.00000000       0.00000000       2.04752564
Ti       0.00000000       0.00000000       2.70787879       0.00000000       0.00000000      -2.04752564
2
Properties=species:S:1:pos:R:3:forces:R:3 energy=-6.94572105697737 pbc="F F F"
Ti       0.00000000       0.00000000       0.00000000       0.00000000       0.00000000       2.08196521
Ti       0.00000000       0.00000000       2.76666667       0.00000000       0.00000000      -2.08196521
2
Properties=species:S:1:pos:R:3:forces:R:3 energy=-6.8244086705244085 pbc="F F F"
Ti       0.00000000       0.00000000       0.00000000       0.00000000       0.00000000       2.03007531
Ti       0.00000000       0.00000000       2.82545455       0.00000000       0.00000000      -2.03007531
2
Properties=species:S:1:pos:R:3:forces:R:3 energy=-6.7085427275585925 pbc="F F F"
Ti       0.00000000       0.00000000       0.00000000       0.00000000       0.00000000       1.90309286
Ti       0.00000000       0.00000000       2.88424242       0.00000000       0.00000000      -1.90309286
2
Properties=species:S:1:pos:R:3:forces:R:3 energy=-6.600928569352588 pbc="F F F"
Ti       0.00000000       0.00000000       0.00000000       0.00000000       0.00000000       1.76226938
Ti       0.00000000       0.00000000       2.94303030       0.00000000       0.00000000      -1.76226938
2
Properties=species:S:1:pos:R:3:forces:R:3 energy=-6.5003550204060545 pbc="F F F"
Ti       0.00000000       0.00000000       0.00000000       0.00000000       0.00000000       1.66859996
Ti       0.00000000       0.00000000       3.00181818       0.00000000       0.00000000      -1.66859996
2
Properties=species:S:1:pos:R:3:forces:R:3 energy=-6.404069135013752 pbc="F F F"
Ti       0.00000000       0.00000000       0.00000000       0.00000000       0.00000000       1.60800838
Ti       0.00000000       0.00000000       3.06060606       0.00000000       0.00000000      -1.60800838
2
Properties=species:S:1:pos:R:3:forces:R:3 energy=-6.3115981533349546 pbc="F F F"
Ti       0.00000000       0.00000000       0.00000000       0.00000000       0.00000000       1.53377128
Ti       0.00000000       0.00000000       3.11939394       0.00000000       0.00000000      -1.53377128
2
Properties=species:S:1:pos:R:3:forces:R:3 energy=-6.22411291348246 pbc="F F F"
Ti       0.00000000       0.00000000       0.00000000       0.00000000       0.00000000       1.44111061
Ti       0.00000000       0.00000000       3.17818182       0.00000000       0.00000000      -1.44111061
2
Properties=species:S:1:pos:R:3:forces:R:3 energy=-6.14209741401088 pbc="F F F"
Ti       0.00000000       0.00000000       0.00000000       0.00000000       0.00000000       1.35121369
Ti       0.00000000       0.00000000       3.23696970       0.00000000       0.00000000      -1.35121369
2
Properties=species:S:1:pos:R:3:forces:R:3 energy=-6.06489994057509 pbc="F F F"
Ti       0.00000000       0.00000000       0.00000000       0.00000000       0.00000000       1.27830911
Ti       0.00000000       0.00000000       3.29575758       0.00000000       0.00000000      -1.27830911
2
Properties=species:S:1:pos:R:3:forces:R:3 energy=-5.991455571030657 pbc="F F F"
Ti       0.00000000       0.00000000       0.00000000       0.00000000       0.00000000       1.22265708
Ti       0.00000000       0.00000000       3.35454545       0.00000000       0.00000000      -1.22265708
2
Properties=species:S:1:pos:R:3:forces:R:3 energy=-5.920961590581501 pbc="F F F"
Ti       0.00000000       0.00000000       0.00000000       0.00000000       0.00000000       1.17634583
Ti       0.00000000       0.00000000       3.41333333       0.00000000       0.00000000      -1.17634583
2
Properties=species:S:1:pos:R:3:forces:R:3 energy=-5.853145844185043 pbc="F F F"
Ti       0.00000000       0.00000000       0.00000000       0.00000000       0.00000000       1.13010776
Ti       0.00000000       0.00000000       3.47212121       0.00000000       0.00000000      -1.13010776
2
Properties=species:S:1:pos:R:3:forces:R:3 energy=-5.788223689575897 pbc="F F F"
Ti       0.00000000       0.00000000       0.00000000       0.00000000       0.00000000       1.07709312
Ti       0.00000000       0.00000000       3.53090909       0.00000000       0.00000000      -1.07709312
2
Properties=species:S:1:pos:R:3:forces:R:3 energy=-5.726708664374487 pbc="F F F"
Ti       0.00000000       0.00000000       0.00000000       0.00000000       0.00000000       1.01386845
Ti       0.00000000       0.00000000       3.58969697       0.00000000       0.00000000      -1.01386845
2
Properties=species:S:1:pos:R:3:forces:R:3 energy=-5.6692167014609 pbc="F F F"
Ti       0.00000000       0.00000000       0.00000000       0.00000000       0.00000000       0.94057208
Ti       0.00000000       0.00000000       3.64848485       0.00000000       0.00000000      -0.94057208
2
Properties=species:S:1:pos:R:3:forces:R:3 energy=-5.616243857519186 pbc="F F F"
Ti       0.00000000       0.00000000       0.00000000       0.00000000       0.00000000       0.86110103
Ti       0.00000000       0.00000000       3.70727273       0.00000000       0.00000000      -0.86110103
2
Properties=species:S:1:pos:R:3:forces:R:3 energy=-5.567953184170737 pbc="F F F"
Ti       0.00000000       0.00000000       0.00000000       0.00000000       0.00000000       0.78261799
Ti       0.00000000       0.00000000       3.76606061       0.00000000       0.00000000      -0.78261799
2
Properties=species:S:1:pos:R:3:forces:R:3 energy=-5.52404120557051 pbc="F F F"
Ti       0.00000000       0.00000000       0.00000000       0.00000000       0.00000000       0.71351916
Ti       0.00000000       0.00000000       3.82484848       0.00000000       0.00000000      -0.71351916
2
Properties=species:S:1:pos:R:3:forces:R:3 energy=-5.483744383387144 pbc="F F F"
Ti       0.00000000       0.00000000       0.00000000       0.00000000       0.00000000       0.66040665
Ti       0.00000000       0.00000000       3.88363636       0.00000000       0.00000000      -0.66040665
2
Properties=species:S:1:pos:R:3:forces:R:3 energy=-5.4460293621577955 pbc="F F F"
Ti       0.00000000       0.00000000       0.00000000       0.00000000       0.00000000       0.62571716
Ti       0.00000000       0.00000000       3.94242424       0.00000000       0.00000000      -0.62571716
2
Properties=species:S:1:pos:R:3:forces:R:3 energy=-5.409858656284276 pbc="F F F"
Ti       0.00000000       0.00000000       0.00000000       0.00000000       0.00000000       0.60711187
Ti       0.00000000       0.00000000       4.00121212       0.00000000       0.00000000      -0.60711187
2
Properties=species:S:1:pos:R:3:forces:R:3 energy=-5.374447479863803 pbc="F F F"
Ti       0.00000000       0.00000000       0.00000000       0.00000000       0.00000000       0.59868568
Ti       0.00000000       0.00000000       4.06000000       0.00000000       0.00000000      -0.59868568
2
Properties=species:S:1:pos:R:3:forces:R:3 energy=-5.339412686272949 pbc="F F F"
Ti       0.00000000       0.00000000       0.00000000       0.00000000       0.00000000       0.59310824
Ti       0.00000000       0.00000000       4.11878788       0.00000000       0.00000000      -0.59310824
2
Properties=species:S:1:pos:R:3:forces:R:3 energy=-5.304786970248241 pbc="F F F"
Ti       0.00000000       0.00000000       0.00000000       0.00000000       0.00000000       0.58379281
Ti       0.00000000       0.00000000       4.17757576       0.00000000       0.00000000      -0.58379281
2
Properties=species:S:1:pos:R:3:forces:R:3 energy=-5.270930139824706 pbc="F F F"
Ti       0.00000000       0.00000000       0.00000000       0.00000000       0.00000000       0.56650174
Ti       0.00000000       0.00000000       4.23636364       0.00000000       0.00000000      -0.56650174
2
Properties=species:S:1:pos:R:3:forces:R:3 energy=-5.238359888166028 pbc="F F F"
Ti       0.00000000       0.00000000       0.00000000       0.00000000       0.00000000       0.54009914
Ti       0.00000000       0.00000000       4.29515152       0.00000000       0.00000000      -0.54009914
2
Properties=species:S:1:pos:R:3:forces:R:3 energy=-5.207571976934583 pbc="F F F"
Ti       0.00000000       0.00000000       0.00000000       0.00000000       0.00000000       0.50643712
Ti       0.00000000       0.00000000       4.35393939       0.00000000       0.00000000      -0.50643712
2
Properties=species:S:1:pos:R:3:forces:R:3 energy=-5.17888134181181 pbc="F F F"
Ti       0.00000000       0.00000000       0.00000000       0.00000000       0.00000000       0.46946388
Ti       0.00000000       0.00000000       4.41272727       0.00000000       0.00000000      -0.46946388
2
Properties=species:S:1:pos:R:3:forces:R:3 energy=-5.152346364089072 pbc="F F F"
Ti       0.00000000       0.00000000       0.00000000       0.00000000       0.00000000       0.43387568
Ti       0.00000000       0.00000000       4.47151515       0.00000000       0.00000000      -0.43387568
2
Properties=species:S:1:pos:R:3:forces:R:3 energy=-5.127760683736431 pbc="F F F"
Ti       0.00000000       0.00000000       0.00000000       0.00000000       0.00000000       0.40366960
Ti       0.00000000       0.00000000       4.53030303       0.00000000       0.00000000      -0.40366960
2
Properties=species:S:1:pos:R:3:forces:R:3 energy=-5.104735755587457 pbc="F F F"
Ti       0.00000000       0.00000000       0.00000000       0.00000000       0.00000000       0.38098419
Ti       0.00000000       0.00000000       4.58909091       0.00000000       0.00000000      -0.38098419
2
Properties=species:S:1:pos:R:3:forces:R:3 energy=-5.0828231684056915 pbc="F F F"
Ti       0.00000000       0.00000000       0.00000000       0.00000000       0.00000000       0.36555433
Ti       0.00000000       0.00000000       4.64787879       0.00000000       0.00000000      -0.36555433
2
Properties=species:S:1:pos:R:3:forces:R:3 energy=-5.06166203357988 pbc="F F F"
Ti       0.00000000       0.00000000       0.00000000       0.00000000       0.00000000       0.35483912
Ti       0.00000000       0.00000000       4.70666667       0.00000000       0.00000000      -0.35483912
2
Properties=species:S:1:pos:R:3:forces:R:3 energy=-5.041088632327782 pbc="F F F"
Ti       0.00000000       0.00000000       0.00000000       0.00000000       0.00000000       0.34485444
Ti       0.00000000       0.00000000       4.76545455       0.00000000       0.00000000      -0.34485444
2
Properties=species:S:1:pos:R:3:forces:R:3 energy=-5.021182453488607 pbc="F F F"
Ti       0.00000000       0.00000000       0.00000000       0.00000000       0.00000000       0.33145112
Ti       0.00000000       0.00000000       4.82424242       0.00000000       0.00000000      -0.33145112
2
Properties=species:S:1:pos:R:3:forces:R:3 energy=-5.00224308992752 pbc="F F F"
Ti       0.00000000       0.00000000       0.00000000       0.00000000       0.00000000       0.31175968
Ti       0.00000000       0.00000000       4.88303030       0.00000000       0.00000000      -0.31175968
2
Properties=species:S:1:pos:R:3:forces:R:3 energy=-4.984662249772264 pbc="F F F"
Ti       0.00000000       0.00000000       0.00000000       0.00000000       0.00000000       0.28529257
Ti       0.00000000       0.00000000       4.94181818       0.00000000       0.00000000      -0.28529257
2
Properties=species:S:1:pos:R:3:forces:R:3 energy=-4.968789193299889 pbc="F F F"
Ti       0.00000000       0.00000000       0.00000000       0.00000000       0.00000000       0.25428805
Ti       0.00000000       0.00000000       5.00060606       0.00000000       0.00000000      -0.25428805
2
Properties=species:S:1:pos:R:3:forces:R:3 energy=-4.954772969529467 pbc="F F F"
Ti       0.00000000       0.00000000       0.00000000       0.00000000       0.00000000       0.22281340
Ti       0.00000000       0.00000000       5.05939394       0.00000000       0.00000000      -0.22281340
2
Properties=species:S:1:pos:R:3:forces:R:3 energy=-4.942520633614051 pbc="F F F"
Ti       0.00000000       0.00000000       0.00000000       0.00000000       0.00000000       0.19486135
Ti       0.00000000       0.00000000       5.11818182       0.00000000       0.00000000      -0.19486135
2
Properties=species:S:1:pos:R:3:forces:R:3 energy=-4.93176076121738 pbc="F F F"
Ti       0.00000000       0.00000000       0.00000000       0.00000000       0.00000000       0.17198460
Ti       0.00000000       0.00000000       5.17696970       0.00000000       0.00000000      -0.17198460
2
Properties=species:S:1:pos:R:3:forces:R:3 energy=-4.922241907806356 pbc="F F F"
Ti       0.00000000       0.00000000       0.00000000       0.00000000       0.00000000       0.15199094
Ti       0.00000000       0.00000000       5.23575758       0.00000000       0.00000000      -0.15199094
2
Properties=species:S:1:pos:R:3:forces:R:3 energy=-4.913910752511057 pbc="F F F"
Ti       0.00000000       0.00000000       0.00000000       0.00000000       0.00000000       0.13116765
Ti       0.00000000       0.00000000       5.29454545       0.00000000       0.00000000      -0.13116765
2
Properties=species:S:1:pos:R:3:forces:R:3 energy=-4.906787445557642 pbc="F F F"
Ti       0.00000000       0.00000000       0.00000000       0.00000000       0.00000000       0.11255464
Ti       0.00000000       0.00000000       5.35333333       0.00000000       0.00000000      -0.11255464
2
Properties=species:S:1:pos:R:3:forces:R:3 energy=-4.900316105373721 pbc="F F F"
Ti       0.00000000       0.00000000       0.00000000       0.00000000       0.00000000       0.11214873
Ti       0.00000000       0.00000000       5.41212121       0.00000000       0.00000000      -0.11214873
2
Properties=species:S:1:pos:R:3:forces:R:3 energy=-4.893109278221071 pbc="F F F"
Ti       0.00000000       0.00000000       0.00000000       0.00000000       0.00000000       0.13500527
Ti       0.00000000       0.00000000       5.47090909       0.00000000       0.00000000      -0.13500527
2
Properties=species:S:1:pos:R:3:forces:R:3 energy=-4.884649928404366 pbc="F F F"
Ti       0.00000000       0.00000000       0.00000000       0.00000000       0.00000000       0.14791822
Ti       0.00000000       0.00000000       5.52969697       0.00000000       0.00000000      -0.14791822
2
Properties=species:S:1:pos:R:3:forces:R:3 energy=-4.876318634208972 pbc="F F F"
Ti       0.00000000       0.00000000       0.00000000       0.00000000       0.00000000       0.13209093
Ti       0.00000000       0.00000000       5.58848485       0.00000000       0.00000000      -0.13209093
2
Properties=species:S:1:pos:R:3:forces:R:3 energy=-4.869161071172277 pbc="F F F"
Ti       0.00000000       0.00000000       0.00000000       0.00000000       0.00000000       0.11428528
Ti       0.00000000       0.00000000       5.64727273       0.00000000       0.00000000      -0.11428528
2
Properties=species:S:1:pos:R:3:forces:R:3 energy=-4.86233361798262 pbc="F F F"
Ti       0.00000000       0.00000000       0.00000000       0.00000000       0.00000000       0.12280077
Ti       0.00000000       0.00000000       5.70606061       0.00000000       0.00000000      -0.12280077
2
Properties=species:S:1:pos:R:3:forces:R:3 energy=-4.854480617415462 pbc="F F F"
Ti       0.00000000       0.00000000       0.00000000       0.00000000       0.00000000       0.14146820
Ti       0.00000000       0.00000000       5.76484848       0.00000000       0.00000000      -0.14146820
2
Properties=species:S:1:pos:R:3:forces:R:3 energy=-4.846409448630021 pbc="F F F"
Ti       0.00000000       0.00000000       0.00000000       0.00000000       0.00000000       0.12591986
Ti       0.00000000       0.00000000       5.82363636       0.00000000       0.00000000      -0.12591986
2
Properties=species:S:1:pos:R:3:forces:R:3 energy=-4.840307608072827 pbc="F F F"
Ti       0.00000000       0.00000000       0.00000000       0.00000000       0.00000000       0.08029188
Ti       0.00000000       0.00000000       5.88242424       0.00000000       0.00000000      -0.08029188
2
Properties=species:S:1:pos:R:3:forces:R:3 energy=-4.836869450321329 pbc="F F F"
Ti       0.00000000       0.00000000       0.00000000       0.00000000       0.00000000       0.03936851
Ti       0.00000000       0.00000000       5.94121212       0.00000000       0.00000000      -0.03936851
2
Properties=species:S:1:pos:R:3:forces:R:3 energy=-4.835181219643605 pbc="F F F"
Ti       0.00000000       0.00000000       0.00000000       0.00000000       0.00000000       0.02308579
Ti       0.00000000       0.00000000       6.00000000       0.00000000       0.00000000      -0.02308579
