2
Properties=species:S:1:pos:R:3:forces:R:3 energy=2667.762579472582 pbc="F F F"
Ti       0.00000000       0.00000000       0.00000000       0.00000000       0.00000000  -40407.87890625
Ti       0.00000000       0.00000000       0.18000000       0.00000000       0.00000000   40407.87890625
2
Properties=species:S:1:pos:R:3:forces:R:3 energy=1186.2463441210193 pbc="F F F"
Ti       0.00000000       0.00000000       0.00000000       0.00000000       0.00000000  -14970.34277344
Ti       0.00000000       0.00000000       0.23878788       0.00000000       0.00000000   14970.34277344
2
Properties=species:S:1:pos:R:3:forces:R:3 energy=595.1226868976247 pbc="F F F"
Ti       0.00000000       0.00000000       0.00000000       0.00000000       0.00000000   -6513.39892578
Ti       0.00000000       0.00000000       0.29757576       0.00000000       0.00000000    6513.39892578
2
Properties=species:S:1:pos:R:3:forces:R:3 energy=324.9483399737965 pbc="F F F"
Ti       0.00000000       0.00000000       0.00000000       0.00000000       0.00000000   -3147.64501953
Ti       0.00000000       0.00000000       0.35636364       0.00000000       0.00000000    3147.64501953
2
Properties=species:S:1:pos:R:3:forces:R:3 energy=189.89182142544468 pbc="F F F"
Ti       0.00000000       0.00000000       0.00000000       0.00000000       0.00000000   -1634.19335938
Ti       0.00000000       0.00000000       0.41515152       0.00000000       0.00000000    1634.19335938
2
Properties=species:S:1:pos:R:3:forces:R:3 energy=118.02098708119438 pbc="F F F"
Ti       0.00000000       0.00000000       0.00000000       0.00000000       0.00000000    -894.20812988
Ti       0.00000000       0.00000000       0.47393939       0.00000000       0.00000000     894.20812988
2
Properties=species:S:1:pos:R:3:forces:R:3 energy=77.90790422079476 pbc="F F F"
Ti       0.00000000       0.00000000       0.00000000       0.00000000       0.00000000    -510.63269043
Ti       0.00000000       0.00000000       0.53272727       0.00000000       0.00000000     510.63269043
2
Properties=species:S:1:pos:R:3:forces:R:3 energy=54.5846964004162 pbc="F F F"
Ti       0.00000000       0.00000000       0.00000000       0.00000000       0.00000000    -303.38143921
Ti       0.00000000       0.00000000       0.59151515       0.00000000       0.00000000     303.38143921
2
Properties=species:S:1:pos:R:3:forces:R:3 energy=40.459646866372545 pbc="F F F"
Ti       0.00000000       0.00000000       0.00000000       0.00000000       0.00000000    -188.17277527
Ti       0.00000000       0.00000000       0.65030303       0.00000000       0.00000000     188.17277527
2
Properties=species:S:1:pos:R:3:forces:R:3 energy=31.488039756323076 pbc="F F F"
Ti       0.00000000       0.00000000       0.00000000       0.00000000       0.00000000    -123.19870758
Ti       0.00000000       0.00000000       0.70909091       0.00000000       0.00000000     123.19870758
2
Properties=species:S:1:pos:R:3:forces:R:3 energy=25.420626562461305 pbc="F F F"
Ti       0.00000000       0.00000000       0.00000000       0.00000000       0.00000000     -86.80330658
Ti       0.00000000       0.00000000       0.76787879       0.00000000       0.00000000      86.80330658
2
Properties=species:S:1:pos:R:3:forces:R:3 energy=20.95198740092609 pbc="F F F"
Ti       0.00000000       0.00000000       0.00000000       0.00000000       0.00000000     -67.42472076
Ti       0.00000000       0.00000000       0.82666667       0.00000000       0.00000000      67.42472076
2
Properties=species:S:1:pos:R:3:forces:R:3 energy=17.28429741843394 pbc="F F F"
Ti       0.00000000       0.00000000       0.00000000       0.00000000       0.00000000     -58.77420044
Ti       0.00000000       0.00000000       0.88545455       0.00000000       0.00000000      58.77420044
2
Properties=species:S:1:pos:R:3:forces:R:3 energy=13.91515053586625 pbc="F F F"
Ti       0.00000000       0.00000000       0.00000000       0.00000000       0.00000000     -56.54011536
Ti       0.00000000       0.00000000       0.94424242       0.00000000       0.00000000      56.54011536
2
Properties=species:S:1:pos:R:3:forces:R:3 energy=10.589811795088103 pbc="F F F"
Ti       0.00000000       0.00000000       0.00000000       0.00000000       0.00000000     -56.87718201
Ti       0.00000000       0.00000000       1.00303030       0.00000000       0.00000000      56.87718201
2
Properties=species:S:1:pos:R:3:forces:R:3 energy=7.19469195047699 pbc="F F F"
Ti       0.00000000       0.00000000       0.00000000       0.00000000       0.00000000     -58.69168854
Ti       0.00000000       0.00000000       1.06181818       0.00000000       0.00000000      58.69168854
2
Properties=species:S:1:pos:R:3:forces:R:3 energy=3.7414068090597152 pbc="F F F"
Ti       0.00000000       0.00000000       0.00000000       0.00000000       0.00000000     -57.88258743
Ti       0.00000000       0.00000000       1.12060606       0.00000000       0.00000000      57.88258743
2
Properties=species:S:1:pos:R:3:forces:R:3 energy=0.5174606366953582 pbc="F F F"
Ti       0.00000000       0.00000000       0.00000000       0.00000000       0.00000000     -50.70882797
Ti       0.00000000       0.00000000       1.17939394       0.00000000       0.00000000      50.70882797
2
Properties=species:S:1:pos:R:3:forces:R:3 energy=-2.1131652499757516 pbc="F F F"
Ti       0.00000000       0.00000000       0.00000000       0.00000000       0.00000000     -38.12234116
Ti       0.00000000       0.00000000       1.23818182       0.00000000       0.00000000      38.12234116
2
Properties=species:S:1:pos:R:3:forces:R:3 energy=-3.932921193464726 pbc="F F F"
Ti       0.00000000       0.00000000       0.00000000       0.00000000       0.00000000     -24.00909615
Ti       0.00000000       0.00000000       1.29696970       0.00000000       0.00000000      24.00909615
2
Properties=species:S:1:pos:R:3:forces:R:3 energy=-5.020477829360998 pbc="F F F"
Ti       0.00000000       0.00000000       0.00000000       0.00000000       0.00000000     -14.03741455
Ti       0.00000000       0.00000000       1.35575758       0.00000000       0.00000000      14.03741455
2
Properties=species:S:1:pos:R:3:forces:R:3 energy=-5.699711659794137 pbc="F F F"
Ti       0.00000000       0.00000000       0.00000000       0.00000000       0.00000000      -9.82477474
Ti       0.00000000       0.00000000       1.41454545       0.00000000       0.00000000       9.82477474
2
Properties=species:S:1:pos:R:3:forces:R:3 energy=-6.232830272878774 pbc="F F F"
Ti       0.00000000       0.00000000       0.00000000       0.00000000       0.00000000      -8.57829571
Ti       0.00000000       0.00000000       1.47333333       0.00000000       0.00000000       8.57829571
2
Properties=species:S:1:pos:R:3:forces:R:3 energy=-6.721573883155098 pbc="F F F"
Ti       0.00000000       0.00000000       0.00000000       0.00000000       0.00000000      -8.04869270
Ti       0.00000000       0.00000000       1.53212121       0.00000000       0.00000000       8.04869270
2
Properties=species:S:1:pos:R:3:forces:R:3 energy=-7.172793487339377 pbc="F F F"
Ti       0.00000000       0.00000000       0.00000000       0.00000000       0.00000000      -7.22991753
Ti       0.00000000       0.00000000       1.59090909       0.00000000       0.00000000       7.22991753
2
Properties=species:S:1:pos:R:3:forces:R:3 energy=-7.56501071924534 pbc="F F F"
Ti       0.00000000       0.00000000       0.00000000       0.00000000       0.00000000      -6.07867050
Ti       0.00000000       0.00000000       1.64969697       0.00000000       0.00000000       6.07867050
2
Properties=species:S:1:pos:R:3:forces:R:3 energy=-7.8849406960726505 pbc="F F F"
Ti       0.00000000       0.00000000       0.00000000       0.00000000       0.00000000      -4.78917265
Ti       0.00000000       0.00000000       1.70848485       0.00000000       0.00000000       4.78917265
2
Properties=species:S:1:pos:R:3:forces:R:3 energy=-8.126494923398711 pbc="F F F"
Ti       0.00000000       0.00000000       0.00000000       0.00000000       0.00000000      -3.42162514
Ti       0.00000000       0.00000000       1.76727273       0.00000000       0.00000000       3.42162514
2
Properties=species:S:1:pos:R:3:forces:R:3 energy=-8.287909937035247 pbc="F F F"
Ti       0.00000000       0.00000000       0.00000000       0.00000000       0.00000000      -2.08892822
Ti       0.00000000       0.00000000       1.82606061       0.00000000       0.00000000       2.08892822
2
Properties=species:S:1:pos:R:3:forces:R:3 energy=-8.375393206275564 pbc="F F F"
Ti       0.00000000       0.00000000       0.00000000       0.00000000       0.00000000      -0.92001551
Ti       0.00000000       0.00000000       1.88484848       0.00000000       0.00000000       0.92001551
2
Properties=species:S:1:pos:R:3:forces:R:3 energy=-8.399950424170632 pbc="F F F"
Ti       0.00000000       0.00000000       0.00000000       0.00000000       0.00000000       0.05281612
Ti       0.00000000       0.00000000       1.94363636       0.00000000       0.00000000      -0.05281612
2
Properties=species:S:1:pos:R:3:forces:R:3 energy=-8.372796841703224 pbc="F F F"
Ti       0.00000000       0.00000000       0.00000000       0.00000000       0.00000000       0.84046614
Ti       0.00000000       0.00000000       2.00242424       0.00000000       0.00000000      -0.84046614
2
Properties=species:S:1:pos:R:3:forces:R:3 energy=-8.304822585949927 pbc="F F F"
Ti       0.00000000       0.00000000       0.00000000       0.00000000       0.00000000       1.43922317
Ti       0.00000000       0.00000000       2.06121212       0.00000000       0.00000000      -1.43922317
2
Properties=species:S:1:pos:R:3:forces:R:3 energy=-8.207582583365179 pbc="F F F"
Ti       0.00000000       0.00000000       0.00000000       0.00000000       0.00000000       1.83454132
Ti       0.00000000       0.00000000       2.12000000       0.00000000       0.00000000      -1.83454132
2
Properties=species:S:1:pos:R:3:forces:R:3 energy=-8.09299064874559 pbc="F F F"
Ti       0.00000000       0.00000000       0.00000000       0.00000000       0.00000000       2.03403735
Ti       0.00000000       0.00000000       2.17878788       0.00000000       0.00000000      -2.03403735
2
Properties=species:S:1:pos:R:3:forces:R:3 energy=-7.971395885800176 pbc="F F F"
Ti       0.00000000       0.00000000       0.00000000       0.00000000       0.00000000       2.08257914
Ti       0.00000000       0.00000000       2.23757576       0.00000000       0.00000000      -2.08257914
2
Properties=species:S:1:pos:R:3:forces:R:3 energy=-7.849895639972917 pbc="F F F"
Ti       0.00000000       0.00000000       0.00000000       0.00000000       0.00000000       2.04052377
Ti       0.00000000       0.00000000       2.29636364       0.00000000       0.00000000      -2.04052377
2
Properties=species:S:1:pos:R:3:forces:R:3 energy=-7.732267753584833 pbc="F F F"
Ti       0.00000000       0.00000000       0.00000000       0.00000000       0.00000000       1.95782101
Ti       0.00000000       0.00000000       2.35515152       0.00000000       0.00000000      -1.95782101
2
Properties=species:S:1:pos:R:3:forces:R:3 energy=-7.6197691609129015 pbc="F F F"
Ti       0.00000000       0.00000000       0.00000000       0.00000000       0.00000000       1.87170684
Ti       0.00000000       0.00000000       2.41393939       0.00000000       0.00000000      -1.87170684
2
Properties=species:S:1:pos:R:3:forces:R:3 energy=-7.511635813010145 pbc="F F F"
Ti       0.00000000       0.00000000       0.00000000       0.00000000       0.00000000       1.81425762
Ti       0.00000000       0.00000000       2.47272727       0.00000000       0.00000000      -1.81425762
2
Properties=species:S:1:pos:R:3:forces:R:3 energy=-7.405401693382144 pbc="F F F"
Ti       0.00000000       0.00000000       0.00000000       0.00000000       0.00000000       1.80993772
Ti       0.00000000       0.00000000       2.53151515       0.00000000       0.00000000      -1.80993772
2
Properties=species:S:1:pos:R:3:forces:R:3 energy=-7.2976546257495665 pbc="F F F"
Ti       0.00000000       0.00000000       0.00000000       0.00000000       0.00000000       1.86473477
Ti       0.00000000       0.00000000       2.59030303       0.00000000       0.00000000      -1.86473477
2
Properties=species:S:1:pos:R:3:forces:R:3 energy=-7.1853764545503065 pbc="F F F"
Ti       0.00000000       0.00000000       0.00000000       0.00000000       0.00000000       1.95840251
Ti       0.00000000       0.00000000       2.64909091       0.00000000       0.00000000      -1.95840251
2
Properties=species:S:1:pos:R:3:forces:R:3 energy=-7.067476204118236 pbc="F F F"
Ti       0.00000000       0.00000000       0.00000000       0.00000000       0.00000000       2.04752636
Ti       0.00000000       0.00000000       2.70787879       0.00000000       0.00000000      -2.04752636
2
Properties=species:S:1:pos:R:3:forces:R:3 energy=-6.945720580140212 pbc="F F F"
Ti       0.00000000       0.00000000       0.00000000       0.00000000       0.00000000       2.08196473
Ti       0.00000000       0.00000000       2.76666667       0.00000000       0.00000000      -2.08196473
2
Properties=species:S:1:pos:R:3:forces:R:3 energy=-6.82440819368725 pbc="F F F"
Ti       0.00000000       0.00000000       0.00000000       0.00000000       0.00000000       2.03007555
Ti       0.00000000       0.00000000       2.82545455       0.00000000       0.00000000      -2.03007555
2
Properties=species:S:1:pos:R:3:forces:R:3 energy=-6.7085427275585925 pbc="F F F"
Ti       0.00000000       0.00000000       0.00000000       0.00000000       0.00000000       1.90309262
Ti       0.00000000       0.00000000       2.88424242       0.00000000       0.00000000      -1.90309262
2
Properties=species:S:1:pos:R:3:forces:R:3 energy=-6.600928149536228 pbc="F F F"
Ti       0.00000000       0.00000000       0.00000000       0.00000000       0.00000000       1.76227021
Ti       0.00000000       0.00000000       2.94303030       0.00000000       0.00000000      -1.76227021
2
Properties=species:S:1:pos:R:3:forces:R:3 energy=-6.500355045748631 pbc="F F F"
Ti       0.00000000       0.00000000       0.00000000       0.00000000       0.00000000       1.66859877
Ti       0.00000000       0.00000000       3.00181818       0.00000000       0.00000000      -1.66859877
2
Properties=species:S:1:pos:R:3:forces:R:3 energy=-6.404068658176594 pbc="F F F"
Ti       0.00000000       0.00000000       0.00000000       0.00000000       0.00000000       1.60800910
Ti       0.00000000       0.00000000       3.06060606       0.00000000       0.00000000      -1.60800910
2
Properties=species:S:1:pos:R:3:forces:R:3 energy=-6.3115981533349546 pbc="F F F"
Ti       0.00000000       0.00000000       0.00000000       0.00000000       0.00000000       1.53376961
Ti       0.00000000       0.00000000       3.11939394       0.00000000       0.00000000      -1.53376961
2
Properties=species:S:1:pos:R:3:forces:R:3 energy=-6.224111959808144 pbc="F F F"
Ti       0.00000000       0.00000000       0.00000000       0.00000000       0.00000000       1.44110954
Ti       0.00000000       0.00000000       3.17818182       0.00000000       0.00000000      -1.44110954
2
Properties=species:S:1:pos:R:3:forces:R:3 energy=-6.14209741401088 pbc="F F F"
Ti       0.00000000       0.00000000       0.00000000       0.00000000       0.00000000       1.35121417
Ti       0.00000000       0.00000000       3.23696970       0.00000000       0.00000000      -1.35121417
2
Properties=species:S:1:pos:R:3:forces:R:3 energy=-6.06489994057509 pbc="F F F"
Ti       0.00000000       0.00000000       0.00000000       0.00000000       0.00000000       1.27831042
Ti       0.00000000       0.00000000       3.29575758       0.00000000       0.00000000      -1.27831042
2
Properties=species:S:1:pos:R:3:forces:R:3 energy=-5.99145461735634 pbc="F F F"
Ti       0.00000000       0.00000000       0.00000000       0.00000000       0.00000000       1.22265637
Ti       0.00000000       0.00000000       3.35454545       0.00000000       0.00000000      -1.22265637
2
Properties=species:S:1:pos:R:3:forces:R:3 energy=-5.920960636907185 pbc="F F F"
Ti       0.00000000       0.00000000       0.00000000       0.00000000       0.00000000       1.17634487
Ti       0.00000000       0.00000000       3.41333333       0.00000000       0.00000000      -1.17634487
2
Properties=species:S:1:pos:R:3:forces:R:3 energy=-5.853145844185043 pbc="F F F"
Ti       0.00000000       0.00000000       0.00000000       0.00000000       0.00000000       1.13010693
Ti       0.00000000       0.00000000       3.47212121       0.00000000       0.00000000      -1.13010693
2
Properties=species:S:1:pos:R:3:forces:R:3 energy=-5.788223225410028 pbc="F F F"
Ti       0.00000000       0.00000000       0.00000000       0.00000000       0.00000000       1.07709181
Ti       0.00000000       0.00000000       3.53090909       0.00000000       0.00000000      -1.07709181
2
Properties=species:S:1:pos:R:3:forces:R:3 energy=-5.726708187537329 pbc="F F F"
Ti       0.00000000       0.00000000       0.00000000       0.00000000       0.00000000       1.01386654
Ti       0.00000000       0.00000000       3.58969697       0.00000000       0.00000000      -1.01386654
2
Properties=species:S:1:pos:R:3:forces:R:3 energy=-5.6692167141321885 pbc="F F F"
Ti       0.00000000       0.00000000       0.00000000       0.00000000       0.00000000       0.94056970
Ti       0.00000000       0.00000000       3.64848485       0.00000000       0.00000000      -0.94056970
2
Properties=species:S:1:pos:R:3:forces:R:3 energy=-5.616243857519186 pbc="F F F"
Ti       0.00000000       0.00000000       0.00000000       0.00000000       0.00000000       0.86110240
Ti       0.00000000       0.00000000       3.70727273       0.00000000       0.00000000      -0.86110240
2
Properties=species:S:1:pos:R:3:forces:R:3 energy=-5.567953184170737 pbc="F F F"
Ti       0.00000000       0.00000000       0.00000000       0.00000000       0.00000000       0.78261811
Ti       0.00000000       0.00000000       3.76606061       0.00000000       0.00000000      -0.78261811
2
Properties=species:S:1:pos:R:3:forces:R:3 energy=-5.524041218241798 pbc="F F F"
Ti       0.00000000       0.00000000       0.00000000       0.00000000       0.00000000       0.71351808
Ti       0.00000000       0.00000000       3.82484848       0.00000000       0.00000000      -0.71351808
2
Properties=species:S:1:pos:R:3:forces:R:3 energy=-5.483744383387144 pbc="F F F"
Ti       0.00000000       0.00000000       0.00000000       0.00000000       0.00000000       0.66040665
Ti       0.00000000       0.00000000       3.88363636       0.00000000       0.00000000      -0.66040665
2
Properties=species:S:1:pos:R:3:forces:R:3 energy=-5.4460293621577955 pbc="F F F"
Ti       0.00000000       0.00000000       0.00000000       0.00000000       0.00000000       0.62571603
Ti       0.00000000       0.00000000       3.94242424       0.00000000       0.00000000      -0.62571603
2
Properties=species:S:1:pos:R:3:forces:R:3 energy=-5.4098586689555646 pbc="F F F"
Ti       0.00000000       0.00000000       0.00000000       0.00000000       0.00000000       0.60711271
Ti       0.00000000       0.00000000       4.00121212       0.00000000       0.00000000      -0.60711271
2
Properties=species:S:1:pos:R:3:forces:R:3 energy=-5.374447479863803 pbc="F F F"
Ti       0.00000000       0.00000000       0.00000000       0.00000000       0.00000000       0.59868538
Ti       0.00000000       0.00000000       4.06000000       0.00000000       0.00000000      -0.59868538
2
Properties=species:S:1:pos:R:3:forces:R:3 energy=-5.339412209435791 pbc="F F F"
Ti       0.00000000       0.00000000       0.00000000       0.00000000       0.00000000       0.59310758
Ti       0.00000000       0.00000000       4.11878788       0.00000000       0.00000000      -0.59310758
2
Properties=species:S:1:pos:R:3:forces:R:3 energy=-5.30478698291953 pbc="F F F"
Ti       0.00000000       0.00000000       0.00000000       0.00000000       0.00000000       0.58379215
Ti       0.00000000       0.00000000       4.17757576       0.00000000       0.00000000      -0.58379215
2
Properties=species:S:1:pos:R:3:forces:R:3 energy=-5.270930165167283 pbc="F F F"
Ti       0.00000000       0.00000000       0.00000000       0.00000000       0.00000000       0.56650209
Ti       0.00000000       0.00000000       4.23636364       0.00000000       0.00000000      -0.56650209
2
Properties=species:S:1:pos:R:3:forces:R:3 energy=-5.238359888166028 pbc="F F F"
Ti       0.00000000       0.00000000       0.00000000       0.00000000       0.00000000       0.54009831
Ti       0.00000000       0.00000000       4.29515152       0.00000000       0.00000000      -0.54009831
2
Properties=species:S:1:pos:R:3:forces:R:3 energy=-5.207571976934583 pbc="F F F"
Ti       0.00000000       0.00000000       0.00000000       0.00000000       0.00000000       0.50643796
Ti       0.00000000       0.00000000       4.35393939       0.00000000       0.00000000      -0.50643796
2
Properties=species:S:1:pos:R:3:forces:R:3 energy=-5.178881379825675 pbc="F F F"
Ti       0.00000000       0.00000000       0.00000000       0.00000000       0.00000000       0.46946338
Ti       0.00000000       0.00000000       4.41272727       0.00000000       0.00000000      -0.46946338
2
Properties=species:S:1:pos:R:3:forces:R:3 energy=-5.152346364089072 pbc="F F F"
Ti       0.00000000       0.00000000       0.00000000       0.00000000       0.00000000       0.43387529
Ti       0.00000000       0.00000000       4.47151515       0.00000000       0.00000000      -0.43387529
2
Properties=species:S:1:pos:R:3:forces:R:3 energy=-5.127760683736431 pbc="F F F"
Ti       0.00000000       0.00000000       0.00000000       0.00000000       0.00000000       0.40366971
Ti       0.00000000       0.00000000       4.53030303       0.00000000       0.00000000      -0.40366971
2
Properties=species:S:1:pos:R:3:forces:R:3 energy=-5.104735793601323 pbc="F F F"
Ti       0.00000000       0.00000000       0.00000000       0.00000000       0.00000000       0.38098481
Ti       0.00000000       0.00000000       4.58909091       0.00000000       0.00000000      -0.38098481
2
Properties=species:S:1:pos:R:3:forces:R:3 energy=-5.0828231684056915 pbc="F F F"
Ti       0.00000000       0.00000000       0.00000000       0.00000000       0.00000000       0.36555260
Ti       0.00000000       0.00000000       4.64787879       0.00000000       0.00000000      -0.36555260
2
Properties=species:S:1:pos:R:3:forces:R:3 energy=-5.061661556742722 pbc="F F F"
Ti       0.00000000       0.00000000       0.00000000       0.00000000       0.00000000       0.35483813
Ti       0.00000000       0.00000000       4.70666667       0.00000000       0.00000000      -0.35483813
2
Properties=species:S:1:pos:R:3:forces:R:3 energy=-5.041088155490624 pbc="F F F"
Ti       0.00000000       0.00000000       0.00000000       0.00000000       0.00000000       0.34485418
Ti       0.00000000       0.00000000       4.76545455       0.00000000       0.00000000      -0.34485418
2
Properties=species:S:1:pos:R:3:forces:R:3 energy=-5.021182930325765 pbc="F F F"
Ti       0.00000000       0.00000000       0.00000000       0.00000000       0.00000000       0.33145261
Ti       0.00000000       0.00000000       4.82424242       0.00000000       0.00000000      -0.33145261
2
Properties=species:S:1:pos:R:3:forces:R:3 energy=-5.00224308992752 pbc="F F F"
Ti       0.00000000       0.00000000       0.00000000       0.00000000       0.00000000       0.31175900
Ti       0.00000000       0.00000000       4.88303030       0.00000000       0.00000000      -0.31175900
2
Properties=species:S:1:pos:R:3:forces:R:3 energy=-4.984662249772264 pbc="F F F"
Ti       0.00000000       0.00000000       0.00000000       0.00000000       0.00000000       0.28529477
Ti       0.00000000       0.00000000       4.94181818       0.00000000       0.00000000      -0.28529477
2
Properties=species:S:1:pos:R:3:forces:R:3 energy=-4.968788239625573 pbc="F F F"
Ti       0.00000000       0.00000000       0.00000000       0.00000000       0.00000000       0.25428829
Ti       0.00000000       0.00000000       5.00060606       0.00000000       0.00000000      -0.25428829
2
Properties=species:S:1:pos:R:3:forces:R:3 energy=-4.954772969529467 pbc="F F F"
Ti       0.00000000       0.00000000       0.00000000       0.00000000       0.00000000       0.22281393
Ti       0.00000000       0.00000000       5.05939394       0.00000000       0.00000000      -0.22281393
2
Properties=species:S:1:pos:R:3:forces:R:3 energy=-4.942520156776893 pbc="F F F"
Ti       0.00000000       0.00000000       0.00000000       0.00000000       0.00000000       0.19485998
Ti       0.00000000       0.00000000       5.11818182       0.00000000       0.00000000      -0.19485998
2
Properties=species:S:1:pos:R:3:forces:R:3 energy=-4.931760780224313 pbc="F F F"
Ti       0.00000000       0.00000000       0.00000000       0.00000000       0.00000000       0.17198440
Ti       0.00000000       0.00000000       5.17696970       0.00000000       0.00000000      -0.17198440
2
Properties=species:S:1:pos:R:3:forces:R:3 energy=-4.922241907806356 pbc="F F F"
Ti       0.00000000       0.00000000       0.00000000       0.00000000       0.00000000       0.15199119
Ti       0.00000000       0.00000000       5.23575758       0.00000000       0.00000000      -0.15199119
2
Properties=species:S:1:pos:R:3:forces:R:3 energy=-4.913910752511057 pbc="F F F"
Ti       0.00000000       0.00000000       0.00000000       0.00000000       0.00000000       0.13116731
Ti       0.00000000       0.00000000       5.29454545       0.00000000       0.00000000      -0.13116731
2
Properties=species:S:1:pos:R:3:forces:R:3 energy=-4.906787461396752 pbc="F F F"
Ti       0.00000000       0.00000000       0.00000000       0.00000000       0.00000000       0.11255557
Ti       0.00000000       0.00000000       5.35333333       0.00000000       0.00000000      -0.11255557
2
Properties=species:S:1:pos:R:3:forces:R:3 energy=-4.900315151699405 pbc="F F F"
Ti       0.00000000       0.00000000       0.00000000       0.00000000       0.00000000       0.11215174
Ti       0.00000000       0.00000000       5.41212121       0.00000000       0.00000000      -0.11215174
2
Properties=species:S:1:pos:R:3:forces:R:3 energy=-4.893109278221071 pbc="F F F"
Ti       0.00000000       0.00000000       0.00000000       0.00000000       0.00000000       0.13500349
Ti       0.00000000       0.00000000       5.47090909       0.00000000       0.00000000      -0.13500349
2
Properties=species:S:1:pos:R:3:forces:R:3 energy=-4.884649947411299 pbc="F F F"
Ti       0.00000000       0.00000000       0.00000000       0.00000000       0.00000000       0.14791369
Ti       0.00000000       0.00000000       5.52969697       0.00000000       0.00000000      -0.14791369
2
Properties=species:S:1:pos:R:3:forces:R:3 energy=-4.876318634208972 pbc="F F F"
Ti       0.00000000       0.00000000       0.00000000       0.00000000       0.00000000       0.13209465
Ti       0.00000000       0.00000000       5.58848485       0.00000000       0.00000000      -0.13209465
2
Properties=species:S:1:pos:R:3:forces:R:3 energy=-4.869158210149328 pbc="F F F"
Ti       0.00000000       0.00000000       0.00000000       0.00000000       0.00000000       0.11429422
Ti       0.00000000       0.00000000       5.64727273       0.00000000       0.00000000      -0.11429422
2
Properties=species:S:1:pos:R:3:forces:R:3 energy=-4.862333633821731 pbc="F F F"
Ti       0.00000000       0.00000000       0.00000000       0.00000000       0.00000000       0.12280462
Ti       0.00000000       0.00000000       5.70606061       0.00000000       0.00000000      -0.12280462
2
Properties=species:S:1:pos:R:3:forces:R:3 energy=-4.854480617415462 pbc="F F F"
Ti       0.00000000       0.00000000       0.00000000       0.00000000       0.00000000       0.14147358
Ti       0.00000000       0.00000000       5.76484848       0.00000000       0.00000000      -0.14147358
2
Properties=species:S:1:pos:R:3:forces:R:3 energy=-4.846416601187394 pbc="F F F"
Ti       0.00000000       0.00000000       0.00000000       0.00000000       0.00000000       0.12592456
Ti       0.00000000       0.00000000       5.82363636       0.00000000       0.00000000      -0.12592456
2
Properties=species:S:1:pos:R:3:forces:R:3 energy=-4.840307617576293 pbc="F F F"
Ti       0.00000000       0.00000000       0.00000000       0.00000000       0.00000000       0.08026263
Ti       0.00000000       0.00000000       5.88242424       0.00000000       0.00000000      -0.08026263
2
Properties=species:S:1:pos:R:3:forces:R:3 energy=-4.836869450321329 pbc="F F F"
Ti       0.00000000       0.00000000       0.00000000       0.00000000       0.00000000       0.03934978
Ti       0.00000000       0.00000000       5.94121212       0.00000000       0.00000000      -0.03934978
2
Properties=species:S:1:pos:R:3:forces:R:3 energy=-4.835181219643605 pbc="F F F"
Ti       0.00000000       0.00000000       0.00000000       0.00000000       0.00000000       0.02308579
Ti       0.00000000       0.00000000       6.00000000       0.00000000       0.00000000      -0.02308579
