2
Properties=species:S:1:pos:R:3:forces:R:3 energy=108685.23941558978 pbc="F F F"
U        0.00000000       0.00000000       0.00000000       0.00000000       0.00000000 -2809487.00000000
U        0.00000000       0.00000000       0.10000000       0.00000000       0.00000000 2809487.00000000
2
Properties=species:S:1:pos:R:3:forces:R:3 energy=29018.96597808977 pbc="F F F"
U        0.00000000       0.00000000       0.00000000       0.00000000       0.00000000 -560816.81250000
U        0.00000000       0.00000000       0.15959596       0.00000000       0.00000000  560816.81250000
2
Properties=species:S:1:pos:R:3:forces:R:3 energy=10195.627110902271 pbc="F F F"
U        0.00000000       0.00000000       0.00000000       0.00000000       0.00000000 -164083.45312500
U        0.00000000       0.00000000       0.21919192       0.00000000       0.00000000  164083.45312500
2
Properties=species:S:1:pos:R:3:forces:R:3 energy=4162.342442933522 pbc="F F F"
U        0.00000000       0.00000000       0.00000000       0.00000000       0.00000000  -58640.64062500
U        0.00000000       0.00000000       0.27878788       0.00000000       0.00000000   58640.64062500
2
Properties=species:S:1:pos:R:3:forces:R:3 energy=1885.8957876600841 pbc="F F F"
U        0.00000000       0.00000000       0.00000000       0.00000000       0.00000000  -23606.27539062
U        0.00000000       0.00000000       0.33838384       0.00000000       0.00000000   23606.27539062
2
Properties=species:S:1:pos:R:3:forces:R:3 energy=934.1219229139905 pbc="F F F"
U        0.00000000       0.00000000       0.00000000       0.00000000       0.00000000  -10337.16015625
U        0.00000000       0.00000000       0.39797980       0.00000000       0.00000000   10337.16015625
2
Properties=species:S:1:pos:R:3:forces:R:3 energy=504.31943267961543 pbc="F F F"
U        0.00000000       0.00000000       0.00000000       0.00000000       0.00000000   -4849.27050781
U        0.00000000       0.00000000       0.45757576       0.00000000       0.00000000    4849.27050781
2
Properties=species:S:1:pos:R:3:forces:R:3 energy=297.08691927722367 pbc="F F F"
U        0.00000000       0.00000000       0.00000000       0.00000000       0.00000000   -2418.78271484
U        0.00000000       0.00000000       0.51717172       0.00000000       0.00000000    2418.78271484
2
Properties=species:S:1:pos:R:3:forces:R:3 energy=191.0172629178246 pbc="F F F"
U        0.00000000       0.00000000       0.00000000       0.00000000       0.00000000   -1278.10925293
U        0.00000000       0.00000000       0.57676768       0.00000000       0.00000000    1278.10925293
2
Properties=species:S:1:pos:R:3:forces:R:3 energy=133.50204994314316 pbc="F F F"
U        0.00000000       0.00000000       0.00000000       0.00000000       0.00000000    -715.70721436
U        0.00000000       0.00000000       0.63636364       0.00000000       0.00000000     715.70721436
2
Properties=species:S:1:pos:R:3:forces:R:3 energy=100.36572798501524 pbc="F F F"
U        0.00000000       0.00000000       0.00000000       0.00000000       0.00000000    -427.43032837
U        0.00000000       0.00000000       0.69595960       0.00000000       0.00000000     427.43032837
2
Properties=species:S:1:pos:R:3:forces:R:3 energy=79.88348167478848 pbc="F F F"
U        0.00000000       0.00000000       0.00000000       0.00000000       0.00000000    -275.87030029
U        0.00000000       0.00000000       0.75555556       0.00000000       0.00000000     275.87030029
2
Properties=species:S:1:pos:R:3:forces:R:3 energy=66.09087165838692 pbc="F F F"
U        0.00000000       0.00000000       0.00000000       0.00000000       0.00000000    -195.45919800
U        0.00000000       0.00000000       0.81515152       0.00000000       0.00000000     195.45919800
2
Properties=species:S:1:pos:R:3:forces:R:3 energy=55.84066204010663 pbc="F F F"
U        0.00000000       0.00000000       0.00000000       0.00000000       0.00000000    -153.04750061
U        0.00000000       0.00000000       0.87474747       0.00000000       0.00000000     153.04750061
2
Properties=species:S:1:pos:R:3:forces:R:3 energy=47.46887812134119 pbc="F F F"
U        0.00000000       0.00000000       0.00000000       0.00000000       0.00000000    -129.89797974
U        0.00000000       0.00000000       0.93434343       0.00000000       0.00000000     129.89797974
2
Properties=species:S:1:pos:R:3:forces:R:3 energy=40.23864246068434 pbc="F F F"
U        0.00000000       0.00000000       0.00000000       0.00000000       0.00000000    -113.02582550
U        0.00000000       0.00000000       0.99393939       0.00000000       0.00000000     113.02582550
2
Properties=species:S:1:pos:R:3:forces:R:3 energy=33.950415898908346 pbc="F F F"
U        0.00000000       0.00000000       0.00000000       0.00000000       0.00000000     -99.10784149
U        0.00000000       0.00000000       1.05353535       0.00000000       0.00000000      99.10784149
2
Properties=species:S:1:pos:R:3:forces:R:3 energy=28.197261853861836 pbc="F F F"
U        0.00000000       0.00000000       0.00000000       0.00000000       0.00000000     -96.11151886
U        0.00000000       0.00000000       1.11313131       0.00000000       0.00000000      96.11151886
2
Properties=species:S:1:pos:R:3:forces:R:3 energy=22.34089378565379 pbc="F F F"
U        0.00000000       0.00000000       0.00000000       0.00000000       0.00000000    -100.66812134
U        0.00000000       0.00000000       1.17272727       0.00000000       0.00000000     100.66812134
2
Properties=species:S:1:pos:R:3:forces:R:3 energy=16.320459656174254 pbc="F F F"
U        0.00000000       0.00000000       0.00000000       0.00000000       0.00000000     -98.10835266
U        0.00000000       0.00000000       1.23232323       0.00000000       0.00000000      98.10835266
2
Properties=species:S:1:pos:R:3:forces:R:3 energy=10.9582814585782 pbc="F F F"
U        0.00000000       0.00000000       0.00000000       0.00000000       0.00000000     -81.19972992
U        0.00000000       0.00000000       1.29191919       0.00000000       0.00000000      81.19972992
2
Properties=species:S:1:pos:R:3:forces:R:3 energy=6.613459610690237 pbc="F F F"
U        0.00000000       0.00000000       0.00000000       0.00000000       0.00000000     -65.24040985
U        0.00000000       0.00000000       1.35151515       0.00000000       0.00000000      65.24040985
2
Properties=species:S:1:pos:R:3:forces:R:3 energy=3.0925365724122145 pbc="F F F"
U        0.00000000       0.00000000       0.00000000       0.00000000       0.00000000     -53.67016602
U        0.00000000       0.00000000       1.41111111       0.00000000       0.00000000      53.67016602
2
Properties=species:S:1:pos:R:3:forces:R:3 energy=0.1414383611060449 pbc="F F F"
U        0.00000000       0.00000000       0.00000000       0.00000000       0.00000000     -45.84533691
U        0.00000000       0.00000000       1.47070707       0.00000000       0.00000000      45.84533691
2
Properties=species:S:1:pos:R:3:forces:R:3 energy=-2.4110065363644595 pbc="F F F"
U        0.00000000       0.00000000       0.00000000       0.00000000       0.00000000     -39.99421310
U        0.00000000       0.00000000       1.53030303       0.00000000       0.00000000      39.99421310
2
Properties=species:S:1:pos:R:3:forces:R:3 energy=-4.6287113893084815 pbc="F F F"
U        0.00000000       0.00000000       0.00000000       0.00000000       0.00000000     -34.30973434
U        0.00000000       0.00000000       1.58989899       0.00000000       0.00000000      34.30973434
2
Properties=species:S:1:pos:R:3:forces:R:3 energy=-6.47900978862554 pbc="F F F"
U        0.00000000       0.00000000       0.00000000       0.00000000       0.00000000     -27.66234207
U        0.00000000       0.00000000       1.64949495       0.00000000       0.00000000      27.66234207
2
Properties=species:S:1:pos:R:3:forces:R:3 energy=-7.935439955660271 pbc="F F F"
U        0.00000000       0.00000000       0.00000000       0.00000000       0.00000000     -21.50300407
U        0.00000000       0.00000000       1.70909091       0.00000000       0.00000000      21.50300407
2
Properties=species:S:1:pos:R:3:forces:R:3 energy=-9.087844045174446 pbc="F F F"
U        0.00000000       0.00000000       0.00000000       0.00000000       0.00000000     -17.55809021
U        0.00000000       0.00000000       1.76868687       0.00000000       0.00000000      17.55809021
2
Properties=species:S:1:pos:R:3:forces:R:3 energy=-10.064142895502162 pbc="F F F"
U        0.00000000       0.00000000       0.00000000       0.00000000       0.00000000     -15.40425682
U        0.00000000       0.00000000       1.82828283       0.00000000       0.00000000      15.40425682
2
Properties=species:S:1:pos:R:3:forces:R:3 energy=-10.936736371638831 pbc="F F F"
U        0.00000000       0.00000000       0.00000000       0.00000000       0.00000000     -13.91729164
U        0.00000000       0.00000000       1.88787879       0.00000000       0.00000000      13.91729164
2
Properties=species:S:1:pos:R:3:forces:R:3 energy=-11.72313170990283 pbc="F F F"
U        0.00000000       0.00000000       0.00000000       0.00000000       0.00000000     -12.45670223
U        0.00000000       0.00000000       1.94747475       0.00000000       0.00000000      12.45670223
2
Properties=species:S:1:pos:R:3:forces:R:3 energy=-12.41928885445022 pbc="F F F"
U        0.00000000       0.00000000       0.00000000       0.00000000       0.00000000     -10.88897991
U        0.00000000       0.00000000       2.00707071       0.00000000       0.00000000      10.88897991
2
Properties=species:S:1:pos:R:3:forces:R:3 energy=-13.018393409480336 pbc="F F F"
U        0.00000000       0.00000000       0.00000000       0.00000000       0.00000000      -9.18202972
U        0.00000000       0.00000000       2.06666667       0.00000000       0.00000000       9.18202972
2
Properties=species:S:1:pos:R:3:forces:R:3 energy=-13.507542747699146 pbc="F F F"
U        0.00000000       0.00000000       0.00000000       0.00000000       0.00000000      -7.16923618
U        0.00000000       0.00000000       2.12626263       0.00000000       0.00000000       7.16923618
2
Properties=species:S:1:pos:R:3:forces:R:3 energy=-13.865856654785574 pbc="F F F"
U        0.00000000       0.00000000       0.00000000       0.00000000       0.00000000      -4.81526232
U        0.00000000       0.00000000       2.18585859       0.00000000       0.00000000       4.81526232
2
Properties=species:S:1:pos:R:3:forces:R:3 energy=-14.080567811156923 pbc="F F F"
U        0.00000000       0.00000000       0.00000000       0.00000000       0.00000000      -2.41836977
U        0.00000000       0.00000000       2.24545455       0.00000000       0.00000000       2.41836977
2
Properties=species:S:1:pos:R:3:forces:R:3 energy=-14.161320180309602 pbc="F F F"
U        0.00000000       0.00000000       0.00000000       0.00000000       0.00000000      -0.37862986
U        0.00000000       0.00000000       2.30505051       0.00000000       0.00000000       0.37862986
2
Properties=species:S:1:pos:R:3:forces:R:3 energy=-14.137994644049002 pbc="F F F"
U        0.00000000       0.00000000       0.00000000       0.00000000       0.00000000       1.04886699
U        0.00000000       0.00000000       2.36464646       0.00000000       0.00000000      -1.04886699
2
Properties=species:S:1:pos:R:3:forces:R:3 energy=-14.04969977350962 pbc="F F F"
U        0.00000000       0.00000000       0.00000000       0.00000000       0.00000000       1.80764592
U        0.00000000       0.00000000       2.42424242       0.00000000       0.00000000      -1.80764592
2
Properties=species:S:1:pos:R:3:forces:R:3 energy=-13.933682504203887 pbc="F F F"
U        0.00000000       0.00000000       0.00000000       0.00000000       0.00000000       2.00951910
U        0.00000000       0.00000000       2.48383838       0.00000000       0.00000000      -2.00951910
2
Properties=species:S:1:pos:R:3:forces:R:3 energy=-13.816680229992278 pbc="F F F"
U        0.00000000       0.00000000       0.00000000       0.00000000       0.00000000       1.88596058
U        0.00000000       0.00000000       2.54343434       0.00000000       0.00000000      -1.88596058
2
Properties=species:S:1:pos:R:3:forces:R:3 energy=-13.709807125371022 pbc="F F F"
U        0.00000000       0.00000000       0.00000000       0.00000000       0.00000000       1.71452534
U        0.00000000       0.00000000       2.60303030       0.00000000       0.00000000      -1.71452534
2
Properties=species:S:1:pos:R:3:forces:R:3 energy=-13.608726861893665 pbc="F F F"
U        0.00000000       0.00000000       0.00000000       0.00000000       0.00000000       1.71930516
U        0.00000000       0.00000000       2.66262626       0.00000000       0.00000000      -1.71930516
2
Properties=species:S:1:pos:R:3:forces:R:3 energy=-13.499464350140418 pbc="F F F"
U        0.00000000       0.00000000       0.00000000       0.00000000       0.00000000       1.99182200
U        0.00000000       0.00000000       2.72222222       0.00000000       0.00000000      -1.99182200
2
Properties=species:S:1:pos:R:3:forces:R:3 energy=-13.366863471749122 pbc="F F F"
U        0.00000000       0.00000000       0.00000000       0.00000000       0.00000000       2.48607492
U        0.00000000       0.00000000       2.78181818       0.00000000       0.00000000      -2.48607492
2
Properties=species:S:1:pos:R:3:forces:R:3 energy=-13.20117479216825 pbc="F F F"
U        0.00000000       0.00000000       0.00000000       0.00000000       0.00000000       3.07927489
U        0.00000000       0.00000000       2.84141414       0.00000000       0.00000000      -3.07927489
2
Properties=species:S:1:pos:R:3:forces:R:3 energy=-13.000539986949127 pbc="F F F"
U        0.00000000       0.00000000       0.00000000       0.00000000       0.00000000       3.63808107
U        0.00000000       0.00000000       2.90101010       0.00000000       0.00000000      -3.63808107
2
Properties=species:S:1:pos:R:3:forces:R:3 energy=-12.770452071426464 pbc="F F F"
U        0.00000000       0.00000000       0.00000000       0.00000000       0.00000000       4.05163622
U        0.00000000       0.00000000       2.96060606       0.00000000       0.00000000      -4.05163622
2
Properties=species:S:1:pos:R:3:forces:R:3 energy=-12.522059733097587 pbc="F F F"
U        0.00000000       0.00000000       0.00000000       0.00000000       0.00000000       4.24304438
U        0.00000000       0.00000000       3.02020202       0.00000000       0.00000000      -4.24304438
2
Properties=species:S:1:pos:R:3:forces:R:3 energy=-12.269761920914313 pbc="F F F"
U        0.00000000       0.00000000       0.00000000       0.00000000       0.00000000       4.18232870
U        0.00000000       0.00000000       3.07979798       0.00000000       0.00000000      -4.18232870
2
Properties=species:S:1:pos:R:3:forces:R:3 energy=-12.028030088419078 pbc="F F F"
U        0.00000000       0.00000000       0.00000000       0.00000000       0.00000000       3.89848828
U        0.00000000       0.00000000       3.13939394       0.00000000       0.00000000      -3.89848828
2
Properties=species:S:1:pos:R:3:forces:R:3 energy=-11.80790192942114 pbc="F F F"
U        0.00000000       0.00000000       0.00000000       0.00000000       0.00000000       3.47421956
U        0.00000000       0.00000000       3.19898990       0.00000000       0.00000000      -3.47421956
2
Properties=species:S:1:pos:R:3:forces:R:3 energy=-11.614599999215676 pbc="F F F"
U        0.00000000       0.00000000       0.00000000       0.00000000       0.00000000       3.01551104
U        0.00000000       0.00000000       3.25858586       0.00000000       0.00000000      -3.01551104
2
Properties=species:S:1:pos:R:3:forces:R:3 energy=-11.447410842027763 pbc="F F F"
U        0.00000000       0.00000000       0.00000000       0.00000000       0.00000000       2.60865331
U        0.00000000       0.00000000       3.31818182       0.00000000       0.00000000      -2.60865331
2
Properties=species:S:1:pos:R:3:forces:R:3 energy=-11.301879471642152 pbc="F F F"
U        0.00000000       0.00000000       0.00000000       0.00000000       0.00000000       2.29022408
U        0.00000000       0.00000000       3.37777778       0.00000000       0.00000000      -2.29022408
2
Properties=species:S:1:pos:R:3:forces:R:3 energy=-11.1729139994557 pbc="F F F"
U        0.00000000       0.00000000       0.00000000       0.00000000       0.00000000       2.04762387
U        0.00000000       0.00000000       3.43737374       0.00000000       0.00000000      -2.04762387
2
Properties=species:S:1:pos:R:3:forces:R:3 energy=-11.05704052937026 pbc="F F F"
U        0.00000000       0.00000000       0.00000000       0.00000000       0.00000000       1.84453249
U        0.00000000       0.00000000       3.49696970       0.00000000       0.00000000      -1.84453249
2
Properties=species:S:1:pos:R:3:forces:R:3 energy=-10.952890241286203 pbc="F F F"
U        0.00000000       0.00000000       0.00000000       0.00000000       0.00000000       1.65081429
U        0.00000000       0.00000000       3.55656566       0.00000000       0.00000000      -1.65081429
2
Properties=species:S:1:pos:R:3:forces:R:3 energy=-10.860240226150994 pbc="F F F"
U        0.00000000       0.00000000       0.00000000       0.00000000       0.00000000       1.45973206
U        0.00000000       0.00000000       3.61616162       0.00000000       0.00000000      -1.45973206
2
Properties=species:S:1:pos:R:3:forces:R:3 energy=-10.77853671328074 pbc="F F F"
U        0.00000000       0.00000000       0.00000000       0.00000000       0.00000000       1.28744900
U        0.00000000       0.00000000       3.67575758       0.00000000       0.00000000      -1.28744900
2
Properties=species:S:1:pos:R:3:forces:R:3 energy=-10.705898341315384 pbc="F F F"
U        0.00000000       0.00000000       0.00000000       0.00000000       0.00000000       1.15954328
U        0.00000000       0.00000000       3.73535354       0.00000000       0.00000000      -1.15954328
2
Properties=species:S:1:pos:R:3:forces:R:3 energy=-10.63909245574496 pbc="F F F"
U        0.00000000       0.00000000       0.00000000       0.00000000       0.00000000       1.09304976
U        0.00000000       0.00000000       3.79494949       0.00000000       0.00000000      -1.09304976
2
Properties=species:S:1:pos:R:3:forces:R:3 energy=-10.574451298488032 pbc="F F F"
U        0.00000000       0.00000000       0.00000000       0.00000000       0.00000000       1.08447587
U        0.00000000       0.00000000       3.85454545       0.00000000       0.00000000      -1.08447587
2
Properties=species:S:1:pos:R:3:forces:R:3 energy=-10.509125478068231 pbc="F F F"
U        0.00000000       0.00000000       0.00000000       0.00000000       0.00000000       1.11125684
U        0.00000000       0.00000000       3.91414141       0.00000000       0.00000000      -1.11125684
2
Properties=species:S:1:pos:R:3:forces:R:3 energy=-10.441882157003235 pbc="F F F"
U        0.00000000       0.00000000       0.00000000       0.00000000       0.00000000       1.14413571
U        0.00000000       0.00000000       3.97373737       0.00000000       0.00000000      -1.14413571
2
Properties=species:S:1:pos:R:3:forces:R:3 energy=-10.373102057733275 pbc="F F F"
U        0.00000000       0.00000000       0.00000000       0.00000000       0.00000000       1.15988982
U        0.00000000       0.00000000       4.03333333       0.00000000       0.00000000      -1.15988982
2
Properties=species:S:1:pos:R:3:forces:R:3 energy=-10.30420932377105 pbc="F F F"
U        0.00000000       0.00000000       0.00000000       0.00000000       0.00000000       1.14701819
U        0.00000000       0.00000000       4.09292929       0.00000000       0.00000000      -1.14701819
2
Properties=species:S:1:pos:R:3:forces:R:3 energy=-10.236966760717522 pbc="F F F"
U        0.00000000       0.00000000       0.00000000       0.00000000       0.00000000       1.10519087
U        0.00000000       0.00000000       4.15252525       0.00000000       0.00000000      -1.10519087
2
Properties=species:S:1:pos:R:3:forces:R:3 energy=-10.17290560871282 pbc="F F F"
U        0.00000000       0.00000000       0.00000000       0.00000000       0.00000000       1.04205334
U        0.00000000       0.00000000       4.21212121       0.00000000       0.00000000      -1.04205334
2
Properties=species:S:1:pos:R:3:forces:R:3 energy=-10.112953596781532 pbc="F F F"
U        0.00000000       0.00000000       0.00000000       0.00000000       0.00000000       0.96931767
U        0.00000000       0.00000000       4.27171717       0.00000000       0.00000000      -0.96931767
2
Properties=species:S:1:pos:R:3:forces:R:3 energy=-10.05732441798232 pbc="F F F"
U        0.00000000       0.00000000       0.00000000       0.00000000       0.00000000       0.89881194
U        0.00000000       0.00000000       4.33131313       0.00000000       0.00000000      -0.89881194
2
Properties=species:S:1:pos:R:3:forces:R:3 energy=-10.005602600086434 pbc="F F F"
U        0.00000000       0.00000000       0.00000000       0.00000000       0.00000000       0.83920556
U        0.00000000       0.00000000       4.39090909       0.00000000       0.00000000      -0.83920556
2
Properties=species:S:1:pos:R:3:forces:R:3 energy=-9.957002033680833 pbc="F F F"
U        0.00000000       0.00000000       0.00000000       0.00000000       0.00000000       0.79425961
U        0.00000000       0.00000000       4.45050505       0.00000000       0.00000000      -0.79425961
2
Properties=species:S:1:pos:R:3:forces:R:3 energy=-9.910663575575706 pbc="F F F"
U        0.00000000       0.00000000       0.00000000       0.00000000       0.00000000       0.76280105
U        0.00000000       0.00000000       4.51010101       0.00000000       0.00000000      -0.76280105
2
Properties=species:S:1:pos:R:3:forces:R:3 energy=-9.865907740820093 pbc="F F F"
U        0.00000000       0.00000000       0.00000000       0.00000000       0.00000000       0.74009418
U        0.00000000       0.00000000       4.56969697       0.00000000       0.00000000      -0.74009418
2
Properties=species:S:1:pos:R:3:forces:R:3 energy=-9.82239790772288 pbc="F F F"
U        0.00000000       0.00000000       0.00000000       0.00000000       0.00000000       0.72000635
U        0.00000000       0.00000000       4.62929293       0.00000000       0.00000000      -0.72000635
2
Properties=species:S:1:pos:R:3:forces:R:3 energy=-9.780145111566958 pbc="F F F"
U        0.00000000       0.00000000       0.00000000       0.00000000       0.00000000       0.69717586
U        0.00000000       0.00000000       4.68888889       0.00000000       0.00000000      -0.69717586
2
Properties=species:S:1:pos:R:3:forces:R:3 energy=-9.739416504546133 pbc="F F F"
U        0.00000000       0.00000000       0.00000000       0.00000000       0.00000000       0.66856652
U        0.00000000       0.00000000       4.74848485       0.00000000       0.00000000      -0.66856652
2
Properties=species:S:1:pos:R:3:forces:R:3 energy=-9.700576995143452 pbc="F F F"
U        0.00000000       0.00000000       0.00000000       0.00000000       0.00000000       0.63407248
U        0.00000000       0.00000000       4.80808081       0.00000000       0.00000000      -0.63407248
2
Properties=species:S:1:pos:R:3:forces:R:3 energy=-9.663910160100338 pbc="F F F"
U        0.00000000       0.00000000       0.00000000       0.00000000       0.00000000       0.59611666
U        0.00000000       0.00000000       4.86767677       0.00000000       0.00000000      -0.59611666
2
Properties=species:S:1:pos:R:3:forces:R:3 energy=-9.629518916567857 pbc="F F F"
U        0.00000000       0.00000000       0.00000000       0.00000000       0.00000000       0.55835426
U        0.00000000       0.00000000       4.92727273       0.00000000       0.00000000      -0.55835426
2
Properties=species:S:1:pos:R:3:forces:R:3 energy=-9.59729125318778 pbc="F F F"
U        0.00000000       0.00000000       0.00000000       0.00000000       0.00000000       0.52388257
U        0.00000000       0.00000000       4.98686869       0.00000000       0.00000000      -0.52388257
2
Properties=species:S:1:pos:R:3:forces:R:3 energy=-9.566992704823045 pbc="F F F"
U        0.00000000       0.00000000       0.00000000       0.00000000       0.00000000       0.49363056
U        0.00000000       0.00000000       5.04646465       0.00000000       0.00000000      -0.49363056
2
Properties=species:S:1:pos:R:3:forces:R:3 energy=-9.538410281351807 pbc="F F F"
U        0.00000000       0.00000000       0.00000000       0.00000000       0.00000000       0.46564493
U        0.00000000       0.00000000       5.10606061       0.00000000       0.00000000      -0.46564493
2
Properties=species:S:1:pos:R:3:forces:R:3 energy=-9.511518502033157 pbc="F F F"
U        0.00000000       0.00000000       0.00000000       0.00000000       0.00000000       0.43612576
U        0.00000000       0.00000000       5.16565657       0.00000000       0.00000000      -0.43612576
2
Properties=species:S:1:pos:R:3:forces:R:3 energy=-9.486517352410447 pbc="F F F"
U        0.00000000       0.00000000       0.00000000       0.00000000       0.00000000       0.40209234
U        0.00000000       0.00000000       5.22525253       0.00000000       0.00000000      -0.40209234
2
Properties=species:S:1:pos:R:3:forces:R:3 energy=-9.463670147006214 pbc="F F F"
U        0.00000000       0.00000000       0.00000000       0.00000000       0.00000000       0.36441791
U        0.00000000       0.00000000       5.28484848       0.00000000       0.00000000      -0.36441791
2
Properties=species:S:1:pos:R:3:forces:R:3 energy=-9.44305366031564 pbc="F F F"
U        0.00000000       0.00000000       0.00000000       0.00000000       0.00000000       0.32805297
U        0.00000000       0.00000000       5.34444444       0.00000000       0.00000000      -0.32805297
2
Properties=species:S:1:pos:R:3:forces:R:3 energy=-9.424508339337118 pbc="F F F"
U        0.00000000       0.00000000       0.00000000       0.00000000       0.00000000       0.29413658
U        0.00000000       0.00000000       5.40404040       0.00000000       0.00000000      -0.29413658
2
Properties=species:S:1:pos:R:3:forces:R:3 energy=-9.408113239717476 pbc="F F F"
U        0.00000000       0.00000000       0.00000000       0.00000000       0.00000000       0.25454715
U        0.00000000       0.00000000       5.46363636       0.00000000       0.00000000      -0.25454715
2
Properties=species:S:1:pos:R:3:forces:R:3 energy=-9.394272689737521 pbc="F F F"
U        0.00000000       0.00000000       0.00000000       0.00000000       0.00000000       0.21019393
U        0.00000000       0.00000000       5.52323232       0.00000000       0.00000000      -0.21019393
2
Properties=species:S:1:pos:R:3:forces:R:3 energy=-9.38298955880472 pbc="F F F"
U        0.00000000       0.00000000       0.00000000       0.00000000       0.00000000       0.16932140
U        0.00000000       0.00000000       5.58282828       0.00000000       0.00000000      -0.16932140
2
Properties=species:S:1:pos:R:3:forces:R:3 energy=-9.373951813732797 pbc="F F F"
U        0.00000000       0.00000000       0.00000000       0.00000000       0.00000000       0.13562256
U        0.00000000       0.00000000       5.64242424       0.00000000       0.00000000      -0.13562256
2
Properties=species:S:1:pos:R:3:forces:R:3 energy=-9.366534502118094 pbc="F F F"
U        0.00000000       0.00000000       0.00000000       0.00000000       0.00000000       0.11668847
U        0.00000000       0.00000000       5.70202020       0.00000000       0.00000000      -0.11668847
2
Properties=species:S:1:pos:R:3:forces:R:3 energy=-9.359491601493785 pbc="F F F"
U        0.00000000       0.00000000       0.00000000       0.00000000       0.00000000       0.12462030
U        0.00000000       0.00000000       5.76161616       0.00000000       0.00000000      -0.12462030
2
Properties=species:S:1:pos:R:3:forces:R:3 energy=-9.351496581604868 pbc="F F F"
U        0.00000000       0.00000000       0.00000000       0.00000000       0.00000000       0.13980871
U        0.00000000       0.00000000       5.82121212       0.00000000       0.00000000      -0.13980871
2
Properties=species:S:1:pos:R:3:forces:R:3 energy=-9.343773699553095 pbc="F F F"
U        0.00000000       0.00000000       0.00000000       0.00000000       0.00000000       0.11162415
U        0.00000000       0.00000000       5.88080808       0.00000000       0.00000000      -0.11162415
2
Properties=species:S:1:pos:R:3:forces:R:3 energy=-9.338704488383545 pbc="F F F"
U        0.00000000       0.00000000       0.00000000       0.00000000       0.00000000       0.05790005
U        0.00000000       0.00000000       5.94040404       0.00000000       0.00000000      -0.05790005
2
Properties=species:S:1:pos:R:3:forces:R:3 energy=-9.336243915527835 pbc="F F F"
U        0.00000000       0.00000000       0.00000000       0.00000000       0.00000000       0.03283592
U        0.00000000       0.00000000       6.00000000       0.00000000       0.00000000      -0.03283592
