2
Properties=species:S:1:pos:R:3:forces:R:3 energy=10811.013279432176 pbc="F F F"
Xe       0.00000000       0.00000000       0.00000000       0.00000000       0.00000000 -162238.07812500
Xe       0.00000000       0.00000000       0.18000000       0.00000000       0.00000000  162238.07812500
2
Properties=species:S:1:pos:R:3:forces:R:3 energy=5066.923923963426 pbc="F F F"
Xe       0.00000000       0.00000000       0.00000000       0.00000000       0.00000000  -55384.63281250
Xe       0.00000000       0.00000000       0.23878788       0.00000000       0.00000000   55384.63281250
2
Properties=species:S:1:pos:R:3:forces:R:3 energy=2951.298435685344 pbc="F F F"
Xe       0.00000000       0.00000000       0.00000000       0.00000000       0.00000000  -22298.50781250
Xe       0.00000000       0.00000000       0.29757576       0.00000000       0.00000000   22298.50781250
2
Properties=species:S:1:pos:R:3:forces:R:3 energy=2057.2659649885545 pbc="F F F"
Xe       0.00000000       0.00000000       0.00000000       0.00000000       0.00000000   -9974.84472656
Xe       0.00000000       0.00000000       0.35636364       0.00000000       0.00000000    9974.84472656
2
Properties=species:S:1:pos:R:3:forces:R:3 energy=1642.3934064011403 pbc="F F F"
Xe       0.00000000       0.00000000       0.00000000       0.00000000       0.00000000   -4844.71142578
Xe       0.00000000       0.00000000       0.41515152       0.00000000       0.00000000    4844.71142578
2
Properties=species:S:1:pos:R:3:forces:R:3 energy=1433.2911115014401 pbc="F F F"
Xe       0.00000000       0.00000000       0.00000000       0.00000000       0.00000000   -2566.04858398
Xe       0.00000000       0.00000000       0.47393939       0.00000000       0.00000000    2566.04858398
2
Properties=species:S:1:pos:R:3:forces:R:3 energy=1316.8864484503486 pbc="F F F"
Xe       0.00000000       0.00000000       0.00000000       0.00000000       0.00000000   -1531.82507324
Xe       0.00000000       0.00000000       0.53272727       0.00000000       0.00000000    1531.82507324
2
Properties=species:S:1:pos:R:3:forces:R:3 energy=1243.7908674590176 pbc="F F F"
Xe       0.00000000       0.00000000       0.00000000       0.00000000       0.00000000    -838.49743652
Xe       0.00000000       0.00000000       0.59151515       0.00000000       0.00000000     838.49743652
2
Properties=species:S:1:pos:R:3:forces:R:3 energy=1217.761936902661 pbc="F F F"
Xe       0.00000000       0.00000000       0.00000000       0.00000000       0.00000000    -256.00256348
Xe       0.00000000       0.00000000       0.65030303       0.00000000       0.00000000     256.00256348
2
Properties=species:S:1:pos:R:3:forces:R:3 energy=1211.9244126533251 pbc="F F F"
Xe       0.00000000       0.00000000       0.00000000       0.00000000       0.00000000      62.58276749
Xe       0.00000000       0.00000000       0.70909091       0.00000000       0.00000000     -62.58276749
2
Properties=species:S:1:pos:R:3:forces:R:3 energy=1224.8017322458563 pbc="F F F"
Xe       0.00000000       0.00000000       0.00000000       0.00000000       0.00000000     352.05749512
Xe       0.00000000       0.00000000       0.76787879       0.00000000       0.00000000    -352.05749512
2
Properties=species:S:1:pos:R:3:forces:R:3 energy=1243.383031450952 pbc="F F F"
Xe       0.00000000       0.00000000       0.00000000       0.00000000       0.00000000     110.18033600
Xe       0.00000000       0.00000000       0.82666667       0.00000000       0.00000000    -110.18033600
2
Properties=species:S:1:pos:R:3:forces:R:3 energy=1214.1653806222944 pbc="F F F"
Xe       0.00000000       0.00000000       0.00000000       0.00000000       0.00000000   -1197.51428223
Xe       0.00000000       0.00000000       0.88545455       0.00000000       0.00000000    1197.51428223
2
Properties=species:S:1:pos:R:3:forces:R:3 energy=1111.8022221965487 pbc="F F F"
Xe       0.00000000       0.00000000       0.00000000       0.00000000       0.00000000   -2173.18286133
Xe       0.00000000       0.00000000       0.94424242       0.00000000       0.00000000    2173.18286133
2
Properties=species:S:1:pos:R:3:forces:R:3 energy=965.2789077995711 pbc="F F F"
Xe       0.00000000       0.00000000       0.00000000       0.00000000       0.00000000   -2820.10058594
Xe       0.00000000       0.00000000       1.00303030       0.00000000       0.00000000    2820.10058594
2
Properties=species:S:1:pos:R:3:forces:R:3 energy=787.8485503130297 pbc="F F F"
Xe       0.00000000       0.00000000       0.00000000       0.00000000       0.00000000   -3149.87451172
Xe       0.00000000       0.00000000       1.06181818       0.00000000       0.00000000    3149.87451172
2
Properties=species:S:1:pos:R:3:forces:R:3 energy=600.6998705287485 pbc="F F F"
Xe       0.00000000       0.00000000       0.00000000       0.00000000       0.00000000   -3166.71264648
Xe       0.00000000       0.00000000       1.12060606       0.00000000       0.00000000    3166.71264648
2
Properties=species:S:1:pos:R:3:forces:R:3 energy=425.8323802858547 pbc="F F F"
Xe       0.00000000       0.00000000       0.00000000       0.00000000       0.00000000   -2644.34326172
Xe       0.00000000       0.00000000       1.17939394       0.00000000       0.00000000    2644.34326172
2
Properties=species:S:1:pos:R:3:forces:R:3 energy=288.4148724483418 pbc="F F F"
Xe       0.00000000       0.00000000       0.00000000       0.00000000       0.00000000   -2070.41088867
Xe       0.00000000       0.00000000       1.23818182       0.00000000       0.00000000    2070.41088867
2
Properties=species:S:1:pos:R:3:forces:R:3 energy=183.2781577214759 pbc="F F F"
Xe       0.00000000       0.00000000       0.00000000       0.00000000       0.00000000   -1516.15563965
Xe       0.00000000       0.00000000       1.29696970       0.00000000       0.00000000    1516.15563965
2
Properties=species:S:1:pos:R:3:forces:R:3 energy=108.96786007462329 pbc="F F F"
Xe       0.00000000       0.00000000       0.00000000       0.00000000       0.00000000   -1016.65020752
Xe       0.00000000       0.00000000       1.35575758       0.00000000       0.00000000    1016.65020752
2
Properties=species:S:1:pos:R:3:forces:R:3 energy=62.5253005303127 pbc="F F F"
Xe       0.00000000       0.00000000       0.00000000       0.00000000       0.00000000    -565.74444580
Xe       0.00000000       0.00000000       1.41454545       0.00000000       0.00000000     565.74444580
2
Properties=species:S:1:pos:R:3:forces:R:3 energy=39.28069479607149 pbc="F F F"
Xe       0.00000000       0.00000000       0.00000000       0.00000000       0.00000000    -266.83438110
Xe       0.00000000       0.00000000       1.47333333       0.00000000       0.00000000     266.83438110
2
Properties=species:S:1:pos:R:3:forces:R:3 energy=27.773384148910964 pbc="F F F"
Xe       0.00000000       0.00000000       0.00000000       0.00000000       0.00000000    -141.17390442
Xe       0.00000000       0.00000000       1.53212121       0.00000000       0.00000000     141.17390442
2
Properties=species:S:1:pos:R:3:forces:R:3 energy=21.43532043477615 pbc="F F F"
Xe       0.00000000       0.00000000       0.00000000       0.00000000       0.00000000     -81.52410889
Xe       0.00000000       0.00000000       1.59090909       0.00000000       0.00000000      81.52410889
2
Properties=species:S:1:pos:R:3:forces:R:3 energy=17.59385275558342 pbc="F F F"
Xe       0.00000000       0.00000000       0.00000000       0.00000000       0.00000000     -52.64719772
Xe       0.00000000       0.00000000       1.64969697       0.00000000       0.00000000      52.64719772
2
Properties=species:S:1:pos:R:3:forces:R:3 energy=14.961893141655917 pbc="F F F"
Xe       0.00000000       0.00000000       0.00000000       0.00000000       0.00000000     -38.49678421
Xe       0.00000000       0.00000000       1.70848485       0.00000000       0.00000000      38.49678421
2
Properties=species:S:1:pos:R:3:forces:R:3 energy=12.939295799869397 pbc="F F F"
Xe       0.00000000       0.00000000       0.00000000       0.00000000       0.00000000     -31.02863312
Xe       0.00000000       0.00000000       1.76727273       0.00000000       0.00000000      31.02863312
2
Properties=species:S:1:pos:R:3:forces:R:3 energy=11.257186159354601 pbc="F F F"
Xe       0.00000000       0.00000000       0.00000000       0.00000000       0.00000000     -26.50598717
Xe       0.00000000       0.00000000       1.82606061       0.00000000       0.00000000      26.50598717
2
Properties=species:S:1:pos:R:3:forces:R:3 energy=9.799218469080454 pbc="F F F"
Xe       0.00000000       0.00000000       0.00000000       0.00000000       0.00000000     -23.21893883
Xe       0.00000000       0.00000000       1.88484848       0.00000000       0.00000000      23.21893883
2
Properties=species:S:1:pos:R:3:forces:R:3 energy=8.517780282046928 pbc="F F F"
Xe       0.00000000       0.00000000       0.00000000       0.00000000       0.00000000     -20.42815018
Xe       0.00000000       0.00000000       1.94363636       0.00000000       0.00000000      20.42815018
2
Properties=species:S:1:pos:R:3:forces:R:3 energy=7.392750304124504 pbc="F F F"
Xe       0.00000000       0.00000000       0.00000000       0.00000000       0.00000000     -17.87905693
Xe       0.00000000       0.00000000       2.00242424       0.00000000       0.00000000      17.87905693
2
Properties=species:S:1:pos:R:3:forces:R:3 energy=6.411837959198159 pbc="F F F"
Xe       0.00000000       0.00000000       0.00000000       0.00000000       0.00000000     -15.52524948
Xe       0.00000000       0.00000000       2.06121212       0.00000000       0.00000000      15.52524948
2
Properties=species:S:1:pos:R:3:forces:R:3 energy=5.563338773712392 pbc="F F F"
Xe       0.00000000       0.00000000       0.00000000       0.00000000       0.00000000     -13.37664032
Xe       0.00000000       0.00000000       2.12000000       0.00000000       0.00000000      13.37664032
2
Properties=species:S:1:pos:R:3:forces:R:3 energy=4.834817864123461 pbc="F F F"
Xe       0.00000000       0.00000000       0.00000000       0.00000000       0.00000000     -11.44480801
Xe       0.00000000       0.00000000       2.17878788       0.00000000       0.00000000      11.44480801
2
Properties=species:S:1:pos:R:3:forces:R:3 energy=4.213330216659548 pbc="F F F"
Xe       0.00000000       0.00000000       0.00000000       0.00000000       0.00000000      -9.73630428
Xe       0.00000000       0.00000000       2.23757576       0.00000000       0.00000000       9.73630428
2
Properties=species:S:1:pos:R:3:forces:R:3 energy=3.6855871161602574 pbc="F F F"
Xe       0.00000000       0.00000000       0.00000000       0.00000000       0.00000000      -8.25632000
Xe       0.00000000       0.00000000       2.29636364       0.00000000       0.00000000       8.25632000
2
Properties=species:S:1:pos:R:3:forces:R:3 energy=3.2380493804123307 pbc="F F F"
Xe       0.00000000       0.00000000       0.00000000       0.00000000       0.00000000      -7.00768328
Xe       0.00000000       0.00000000       2.35515152       0.00000000       0.00000000       7.00768328
2
Properties=species:S:1:pos:R:3:forces:R:3 energy=2.85721082083327 pbc="F F F"
Xe       0.00000000       0.00000000       0.00000000       0.00000000       0.00000000      -5.98530197
Xe       0.00000000       0.00000000       2.41393939       0.00000000       0.00000000       5.98530197
2
Properties=species:S:1:pos:R:3:forces:R:3 energy=2.5302195834632277 pbc="F F F"
Xe       0.00000000       0.00000000       0.00000000       0.00000000       0.00000000      -5.17174149
Xe       0.00000000       0.00000000       2.47272727       0.00000000       0.00000000       5.17174149
2
Properties=species:S:1:pos:R:3:forces:R:3 energy=2.2456308205801223 pbc="F F F"
Xe       0.00000000       0.00000000       0.00000000       0.00000000       0.00000000      -4.53697157
Xe       0.00000000       0.00000000       2.53151515       0.00000000       0.00000000       4.53697157
2
Properties=species:S:1:pos:R:3:forces:R:3 energy=1.9940351557385043 pbc="F F F"
Xe       0.00000000       0.00000000       0.00000000       0.00000000       0.00000000      -4.04243183
Xe       0.00000000       0.00000000       2.59030303       0.00000000       0.00000000       4.04243183
2
Properties=species:S:1:pos:R:3:forces:R:3 energy=1.7683893861778803 pbc="F F F"
Xe       0.00000000       0.00000000       0.00000000       0.00000000       0.00000000      -3.64749479
Xe       0.00000000       0.00000000       2.64909091       0.00000000       0.00000000       3.64749479
2
Properties=species:S:1:pos:R:3:forces:R:3 energy=1.5639384882691276 pbc="F F F"
Xe       0.00000000       0.00000000       0.00000000       0.00000000       0.00000000      -3.31601477
Xe       0.00000000       0.00000000       2.70787879       0.00000000       0.00000000       3.31601477
2
Properties=species:S:1:pos:R:3:forces:R:3 energy=1.3778000570989395 pbc="F F F"
Xe       0.00000000       0.00000000       0.00000000       0.00000000       0.00000000      -3.02096295
Xe       0.00000000       0.00000000       2.76666667       0.00000000       0.00000000       3.02096295
2
Properties=species:S:1:pos:R:3:forces:R:3 energy=1.2083590587320232 pbc="F F F"
Xe       0.00000000       0.00000000       0.00000000       0.00000000       0.00000000      -2.74605918
Xe       0.00000000       0.00000000       2.82545455       0.00000000       0.00000000       2.74605918
2
Properties=species:S:1:pos:R:3:forces:R:3 energy=1.0546726055570832 pbc="F F F"
Xe       0.00000000       0.00000000       0.00000000       0.00000000       0.00000000      -2.48444796
Xe       0.00000000       0.00000000       2.88424242       0.00000000       0.00000000       2.48444796
2
Properties=species:S:1:pos:R:3:forces:R:3 energy=0.9160013192270196 pbc="F F F"
Xe       0.00000000       0.00000000       0.00000000       0.00000000       0.00000000      -2.23551846
Xe       0.00000000       0.00000000       2.94303030       0.00000000       0.00000000       2.23551846
2
Properties=species:S:1:pos:R:3:forces:R:3 energy=0.7915402467820135 pbc="F F F"
Xe       0.00000000       0.00000000       0.00000000       0.00000000       0.00000000      -2.00134635
Xe       0.00000000       0.00000000       3.00181818       0.00000000       0.00000000       2.00134635
2
Properties=species:S:1:pos:R:3:forces:R:3 energy=0.6803589827401284 pbc="F F F"
Xe       0.00000000       0.00000000       0.00000000       0.00000000       0.00000000      -1.78407228
Xe       0.00000000       0.00000000       3.06060606       0.00000000       0.00000000       1.78407228
2
Properties=species:S:1:pos:R:3:forces:R:3 energy=0.5814284595092378 pbc="F F F"
Xe       0.00000000       0.00000000       0.00000000       0.00000000       0.00000000      -1.58459151
Xe       0.00000000       0.00000000       3.11939394       0.00000000       0.00000000       1.58459151
2
Properties=species:S:1:pos:R:3:forces:R:3 energy=0.4937103163403224 pbc="F F F"
Xe       0.00000000       0.00000000       0.00000000       0.00000000       0.00000000      -1.40240979
Xe       0.00000000       0.00000000       3.17818182       0.00000000       0.00000000       1.40240979
2
Properties=species:S:1:pos:R:3:forces:R:3 energy=0.4162276133188759 pbc="F F F"
Xe       0.00000000       0.00000000       0.00000000       0.00000000       0.00000000      -1.23609960
Xe       0.00000000       0.00000000       3.23696970       0.00000000       0.00000000       1.23609960
2
Properties=species:S:1:pos:R:3:forces:R:3 energy=0.34809767481609916 pbc="F F F"
Xe       0.00000000       0.00000000       0.00000000       0.00000000       0.00000000      -1.08392787
Xe       0.00000000       0.00000000       3.29575758       0.00000000       0.00000000       1.08392787
2
Properties=species:S:1:pos:R:3:forces:R:3 energy=0.2885364102416705 pbc="F F F"
Xe       0.00000000       0.00000000       0.00000000       0.00000000       0.00000000      -0.94441342
Xe       0.00000000       0.00000000       3.35454545       0.00000000       0.00000000       0.94441342
2
Properties=species:S:1:pos:R:3:forces:R:3 energy=0.2368281833118356 pbc="F F F"
Xe       0.00000000       0.00000000       0.00000000       0.00000000       0.00000000      -0.81663990
Xe       0.00000000       0.00000000       3.41333333       0.00000000       0.00000000       0.81663990
2
Properties=species:S:1:pos:R:3:forces:R:3 energy=0.19229511190555015 pbc="F F F"
Xe       0.00000000       0.00000000       0.00000000       0.00000000       0.00000000      -0.70030624
Xe       0.00000000       0.00000000       3.47212121       0.00000000       0.00000000       0.70030624
2
Properties=species:S:1:pos:R:3:forces:R:3 energy=0.15426352461268272 pbc="F F F"
Xe       0.00000000       0.00000000       0.00000000       0.00000000       0.00000000      -0.59550333
Xe       0.00000000       0.00000000       3.53090909       0.00000000       0.00000000       0.59550333
2
Properties=species:S:1:pos:R:3:forces:R:3 energy=0.122049390336187 pbc="F F F"
Xe       0.00000000       0.00000000       0.00000000       0.00000000       0.00000000      -0.50238079
Xe       0.00000000       0.00000000       3.58969697       0.00000000       0.00000000       0.50238079
2
Properties=species:S:1:pos:R:3:forces:R:3 energy=0.09496728339344568 pbc="F F F"
Xe       0.00000000       0.00000000       0.00000000       0.00000000       0.00000000      -0.42088395
Xe       0.00000000       0.00000000       3.64848485       0.00000000       0.00000000       0.42088395
2
Properties=species:S:1:pos:R:3:forces:R:3 energy=0.07234412403278766 pbc="F F F"
Xe       0.00000000       0.00000000       0.00000000       0.00000000       0.00000000      -0.35058576
Xe       0.00000000       0.00000000       3.70727273       0.00000000       0.00000000       0.35058576
2
Properties=species:S:1:pos:R:3:forces:R:3 energy=0.05354259859913974 pbc="F F F"
Xe       0.00000000       0.00000000       0.00000000       0.00000000       0.00000000      -0.29069644
Xe       0.00000000       0.00000000       3.76606061       0.00000000       0.00000000       0.29069644
2
Properties=species:S:1:pos:R:3:forces:R:3 energy=0.03798212898962189 pbc="F F F"
Xe       0.00000000       0.00000000       0.00000000       0.00000000       0.00000000      -0.24014294
Xe       0.00000000       0.00000000       3.82484848       0.00000000       0.00000000       0.24014294
2
Properties=species:S:1:pos:R:3:forces:R:3 energy=0.025148987958151812 pbc="F F F"
Xe       0.00000000       0.00000000       0.00000000       0.00000000       0.00000000      -0.19768871
Xe       0.00000000       0.00000000       3.88363636       0.00000000       0.00000000       0.19768871
2
Properties=species:S:1:pos:R:3:forces:R:3 energy=0.014605014241857478 pbc="F F F"
Xe       0.00000000       0.00000000       0.00000000       0.00000000       0.00000000      -0.16205549
Xe       0.00000000       0.00000000       3.94242424       0.00000000       0.00000000       0.16205549
2
Properties=species:S:1:pos:R:3:forces:R:3 energy=0.005985756101093337 pbc="F F F"
Xe       0.00000000       0.00000000       0.00000000       0.00000000       0.00000000      -0.13201916
Xe       0.00000000       0.00000000       4.00121212       0.00000000       0.00000000       0.13201916
2
Properties=species:S:1:pos:R:3:forces:R:3 energy=-0.001005208987302053 pbc="F F F"
Xe       0.00000000       0.00000000       0.00000000       0.00000000       0.00000000      -0.10648876
Xe       0.00000000       0.00000000       4.06000000       0.00000000       0.00000000       0.10648876
2
Properties=species:S:1:pos:R:3:forces:R:3 energy=-0.006605337908286414 pbc="F F F"
Xe       0.00000000       0.00000000       0.00000000       0.00000000       0.00000000      -0.08457243
Xe       0.00000000       0.00000000       4.11878788       0.00000000       0.00000000       0.08457243
2
Properties=species:S:1:pos:R:3:forces:R:3 energy=-0.011006531812244025 pbc="F F F"
Xe       0.00000000       0.00000000       0.00000000       0.00000000       0.00000000      -0.06560279
Xe       0.00000000       0.00000000       4.17757576       0.00000000       0.00000000       0.06560279
2
Properties=species:S:1:pos:R:3:forces:R:3 energy=-0.014368003683635607 pbc="F F F"
Xe       0.00000000       0.00000000       0.00000000       0.00000000       0.00000000      -0.04914847
Xe       0.00000000       0.00000000       4.23636364       0.00000000       0.00000000       0.04914847
2
Properties=species:S:1:pos:R:3:forces:R:3 energy=-0.016830125660996717 pbc="F F F"
Xe       0.00000000       0.00000000       0.00000000       0.00000000       0.00000000      -0.03498470
Xe       0.00000000       0.00000000       4.29515152       0.00000000       0.00000000       0.03498470
2
Properties=species:S:1:pos:R:3:forces:R:3 energy=-0.01852516324418417 pbc="F F F"
Xe       0.00000000       0.00000000       0.00000000       0.00000000       0.00000000      -0.02306130
Xe       0.00000000       0.00000000       4.35393939       0.00000000       0.00000000       0.02306130
2
Properties=species:S:1:pos:R:3:forces:R:3 energy=-0.019586601682609246 pbc="F F F"
Xe       0.00000000       0.00000000       0.00000000       0.00000000       0.00000000      -0.01344682
Xe       0.00000000       0.00000000       4.41272727       0.00000000       0.00000000       0.01344682
2
Properties=species:S:1:pos:R:3:forces:R:3 energy=-0.02015430017984571 pbc="F F F"
Xe       0.00000000       0.00000000       0.00000000       0.00000000       0.00000000      -0.00628425
Xe       0.00000000       0.00000000       4.47151515       0.00000000       0.00000000       0.00628425
2
Properties=species:S:1:pos:R:3:forces:R:3 energy=-0.020376595704937113 pbc="F F F"
Xe       0.00000000       0.00000000       0.00000000       0.00000000       0.00000000      -0.00171999
Xe       0.00000000       0.00000000       4.53030303       0.00000000       0.00000000       0.00171999
2
Properties=species:S:1:pos:R:3:forces:R:3 energy=-0.02040881462392125 pbc="F F F"
Xe       0.00000000       0.00000000       0.00000000       0.00000000       0.00000000       0.00017728
Xe       0.00000000       0.00000000       4.58909091       0.00000000       0.00000000      -0.00017728
2
Properties=species:S:1:pos:R:3:forces:R:3 energy=-0.020406111944167693 pbc="F F F"
Xe       0.00000000       0.00000000       0.00000000       0.00000000       0.00000000      -0.00049089
Xe       0.00000000       0.00000000       4.64787879       0.00000000       0.00000000       0.00049089
2
Properties=species:S:1:pos:R:3:forces:R:3 energy=-0.02051021632450659 pbc="F F F"
Xe       0.00000000       0.00000000       0.00000000       0.00000000       0.00000000      -0.00337248
Xe       0.00000000       0.00000000       4.70666667       0.00000000       0.00000000       0.00337248
2
Properties=species:S:1:pos:R:3:forces:R:3 energy=-0.020833752115768125 pbc="F F F"
Xe       0.00000000       0.00000000       0.00000000       0.00000000       0.00000000      -0.00783515
Xe       0.00000000       0.00000000       4.76545455       0.00000000       0.00000000       0.00783515
2
Properties=species:S:1:pos:R:3:forces:R:3 energy=-0.02144551635430755 pbc="F F F"
Xe       0.00000000       0.00000000       0.00000000       0.00000000       0.00000000      -0.01300826
Xe       0.00000000       0.00000000       4.82424242       0.00000000       0.00000000       0.01300826
2
Properties=species:S:1:pos:R:3:forces:R:3 energy=-0.02235759318635744 pbc="F F F"
Xe       0.00000000       0.00000000       0.00000000       0.00000000       0.00000000      -0.01790198
Xe       0.00000000       0.00000000       4.88303030       0.00000000       0.00000000       0.01790198
2
Properties=species:S:1:pos:R:3:forces:R:3 energy=-0.023526335101539925 pbc="F F F"
Xe       0.00000000       0.00000000       0.00000000       0.00000000       0.00000000      -0.02158205
Xe       0.00000000       0.00000000       4.94181818       0.00000000       0.00000000       0.02158205
2
Properties=species:S:1:pos:R:3:forces:R:3 energy=-0.024857603606622328 pbc="F F F"
Xe       0.00000000       0.00000000       0.00000000       0.00000000       0.00000000      -0.02335521
Xe       0.00000000       0.00000000       5.00060606       0.00000000       0.00000000       0.02335521
2
Properties=species:S:1:pos:R:3:forces:R:3 energy=-0.02622926269421414 pbc="F F F"
Xe       0.00000000       0.00000000       0.00000000       0.00000000       0.00000000      -0.02294304
Xe       0.00000000       0.00000000       5.05939394       0.00000000       0.00000000       0.02294304
2
Properties=species:S:1:pos:R:3:forces:R:3 energy=-0.027517431425848143 pbc="F F F"
Xe       0.00000000       0.00000000       0.00000000       0.00000000       0.00000000      -0.02062759
Xe       0.00000000       0.00000000       5.11818182       0.00000000       0.00000000       0.02062759
2
Properties=species:S:1:pos:R:3:forces:R:3 energy=-0.02863520406838231 pbc="F F F"
Xe       0.00000000       0.00000000       0.00000000       0.00000000       0.00000000      -0.01735549
Xe       0.00000000       0.00000000       5.17696970       0.00000000       0.00000000       0.01735549
2
Properties=species:S:1:pos:R:3:forces:R:3 energy=-0.029569844489537186 pbc="F F F"
Xe       0.00000000       0.00000000       0.00000000       0.00000000       0.00000000      -0.01469507
Xe       0.00000000       0.00000000       5.23575758       0.00000000       0.00000000       0.01469507
2
Properties=species:S:1:pos:R:3:forces:R:3 energy=-0.030405784421167138 pbc="F F F"
Xe       0.00000000       0.00000000       0.00000000       0.00000000       0.00000000      -0.01415642
Xe       0.00000000       0.00000000       5.29454545       0.00000000       0.00000000       0.01415642
2
Properties=species:S:1:pos:R:3:forces:R:3 energy=-0.031267843599862295 pbc="F F F"
Xe       0.00000000       0.00000000       0.00000000       0.00000000       0.00000000      -0.01516336
Xe       0.00000000       0.00000000       5.35333333       0.00000000       0.00000000       0.01516336
2
Properties=species:S:1:pos:R:3:forces:R:3 energy=-0.032130403076586864 pbc="F F F"
Xe       0.00000000       0.00000000       0.00000000       0.00000000       0.00000000      -0.01320009
Xe       0.00000000       0.00000000       5.41212121       0.00000000       0.00000000       0.01320009
2
Properties=species:S:1:pos:R:3:forces:R:3 energy=-0.032687392364029316 pbc="F F F"
Xe       0.00000000       0.00000000       0.00000000       0.00000000       0.00000000      -0.00490316
Xe       0.00000000       0.00000000       5.47090909       0.00000000       0.00000000       0.00490316
2
Properties=species:S:1:pos:R:3:forces:R:3 energy=-0.032699908401426295 pbc="F F F"
Xe       0.00000000       0.00000000       0.00000000       0.00000000       0.00000000       0.00375688
Xe       0.00000000       0.00000000       5.52969697       0.00000000       0.00000000      -0.00375688
2
Properties=species:S:1:pos:R:3:forces:R:3 energy=-0.03236519131667953 pbc="F F F"
Xe       0.00000000       0.00000000       0.00000000       0.00000000       0.00000000       0.00674918
Xe       0.00000000       0.00000000       5.58848485       0.00000000       0.00000000      -0.00674918
2
Properties=species:S:1:pos:R:3:forces:R:3 energy=-0.03194081733128769 pbc="F F F"
Xe       0.00000000       0.00000000       0.00000000       0.00000000       0.00000000       0.00811636
Xe       0.00000000       0.00000000       5.64727273       0.00000000       0.00000000      -0.00811636
2
Properties=species:S:1:pos:R:3:forces:R:3 energy=-0.03128698441094813 pbc="F F F"
Xe       0.00000000       0.00000000       0.00000000       0.00000000       0.00000000       0.01547539
Xe       0.00000000       0.00000000       5.70606061       0.00000000       0.00000000      -0.01547539
2
Properties=species:S:1:pos:R:3:forces:R:3 energy=-0.030020790820766165 pbc="F F F"
Xe       0.00000000       0.00000000       0.00000000       0.00000000       0.00000000       0.02731848
Xe       0.00000000       0.00000000       5.76484848       0.00000000       0.00000000      -0.02731848
2
Properties=species:S:1:pos:R:3:forces:R:3 energy=-0.028246622991752145 pbc="F F F"
Xe       0.00000000       0.00000000       0.00000000       0.00000000       0.00000000       0.03078071
Xe       0.00000000       0.00000000       5.82363636       0.00000000       0.00000000      -0.03078071
2
Properties=species:S:1:pos:R:3:forces:R:3 energy=-0.026663539551031575 pbc="F F F"
Xe       0.00000000       0.00000000       0.00000000       0.00000000       0.00000000       0.02177318
Xe       0.00000000       0.00000000       5.88242424       0.00000000       0.00000000      -0.02177318
2
Properties=species:S:1:pos:R:3:forces:R:3 energy=-0.02574121900784926 pbc="F F F"
Xe       0.00000000       0.00000000       0.00000000       0.00000000       0.00000000       0.01000941
Xe       0.00000000       0.00000000       5.94121212       0.00000000       0.00000000      -0.01000941
2
Properties=species:S:1:pos:R:3:forces:R:3 energy=-0.025349661953620893 pbc="F F F"
Xe       0.00000000       0.00000000       0.00000000       0.00000000       0.00000000       0.00489970
Xe       0.00000000       0.00000000       6.00000000       0.00000000       0.00000000      -0.00489970
