2
Properties=species:S:1:pos:R:3:forces:R:3 energy=13712.443814142882 pbc="F F F"
Yb       0.00000000       0.00000000       0.00000000       0.00000000       0.00000000 -239064.59375000
Yb       0.00000000       0.00000000       0.18000000       0.00000000       0.00000000  239064.59375000
2
Properties=species:S:1:pos:R:3:forces:R:3 energy=5341.508755549132 pbc="F F F"
Yb       0.00000000       0.00000000       0.00000000       0.00000000       0.00000000  -79435.73437500
Yb       0.00000000       0.00000000       0.23878788       0.00000000       0.00000000   79435.73437500
2
Properties=species:S:1:pos:R:3:forces:R:3 energy=2343.6723297678814 pbc="F F F"
Yb       0.00000000       0.00000000       0.00000000       0.00000000       0.00000000  -31061.47851562
Yb       0.00000000       0.00000000       0.29757576       0.00000000       0.00000000   31061.47851562
2
Properties=species:S:1:pos:R:3:forces:R:3 energy=1115.5795563367171 pbc="F F F"
Yb       0.00000000       0.00000000       0.00000000       0.00000000       0.00000000  -13438.63964844
Yb       0.00000000       0.00000000       0.35636364       0.00000000       0.00000000   13438.63964844
2
Properties=species:S:1:pos:R:3:forces:R:3 energy=566.4314240124984 pbc="F F F"
Yb       0.00000000       0.00000000       0.00000000       0.00000000       0.00000000   -6250.78515625
Yb       0.00000000       0.00000000       0.41515152       0.00000000       0.00000000    6250.78515625
2
Properties=species:S:1:pos:R:3:forces:R:3 energy=304.12460028836523 pbc="F F F"
Yb       0.00000000       0.00000000       0.00000000       0.00000000       0.00000000   -3083.25097656
Yb       0.00000000       0.00000000       0.47393939       0.00000000       0.00000000    3083.25097656
2
Properties=species:S:1:pos:R:3:forces:R:3 energy=171.70486153150526 pbc="F F F"
Yb       0.00000000       0.00000000       0.00000000       0.00000000       0.00000000   -1600.62121582
Yb       0.00000000       0.00000000       0.53272727       0.00000000       0.00000000    1600.62121582
2
Properties=species:S:1:pos:R:3:forces:R:3 energy=101.51263896796864 pbc="F F F"
Yb       0.00000000       0.00000000       0.00000000       0.00000000       0.00000000    -869.76342773
Yb       0.00000000       0.00000000       0.59151515       0.00000000       0.00000000     869.76342773
2
Properties=species:S:1:pos:R:3:forces:R:3 energy=62.64696594079696 pbc="F F F"
Yb       0.00000000       0.00000000       0.00000000       0.00000000       0.00000000    -492.31033325
Yb       0.00000000       0.00000000       0.65030303       0.00000000       0.00000000     492.31033325
2
Properties=species:S:1:pos:R:3:forces:R:3 energy=40.273751288809365 pbc="F F F"
Yb       0.00000000       0.00000000       0.00000000       0.00000000       0.00000000    -288.98281860
Yb       0.00000000       0.00000000       0.70909091       0.00000000       0.00000000     288.98281860
2
Properties=species:S:1:pos:R:3:forces:R:3 energy=26.939637309136995 pbc="F F F"
Yb       0.00000000       0.00000000       0.00000000       0.00000000       0.00000000    -175.26518250
Yb       0.00000000       0.00000000       0.76787879       0.00000000       0.00000000     175.26518250
2
Properties=species:S:1:pos:R:3:forces:R:3 energy=18.738633432872145 pbc="F F F"
Yb       0.00000000       0.00000000       0.00000000       0.00000000       0.00000000    -109.54433441
Yb       0.00000000       0.00000000       0.82666667       0.00000000       0.00000000     109.54433441
2
Properties=species:S:1:pos:R:3:forces:R:3 energy=13.544087908770086 pbc="F F F"
Yb       0.00000000       0.00000000       0.00000000       0.00000000       0.00000000     -70.45743561
Yb       0.00000000       0.00000000       0.88545455       0.00000000       0.00000000      70.45743561
2
Properties=species:S:1:pos:R:3:forces:R:3 energy=10.159211955324666 pbc="F F F"
Yb       0.00000000       0.00000000       0.00000000       0.00000000       0.00000000     -46.60243607
Yb       0.00000000       0.00000000       0.94424242       0.00000000       0.00000000      46.60243607
2
Properties=species:S:1:pos:R:3:forces:R:3 energy=7.891321913802922 pbc="F F F"
Yb       0.00000000       0.00000000       0.00000000       0.00000000       0.00000000     -31.68575478
Yb       0.00000000       0.00000000       1.00303030       0.00000000       0.00000000      31.68575478
2
Properties=species:S:1:pos:R:3:forces:R:3 energy=6.328798635817354 pbc="F F F"
Yb       0.00000000       0.00000000       0.00000000       0.00000000       0.00000000     -22.17894363
Yb       0.00000000       0.00000000       1.06181818       0.00000000       0.00000000      22.17894363
2
Properties=species:S:1:pos:R:3:forces:R:3 energy=5.214326981530901 pbc="F F F"
Yb       0.00000000       0.00000000       0.00000000       0.00000000       0.00000000     -16.24338341
Yb       0.00000000       0.00000000       1.12060606       0.00000000       0.00000000      16.24338341
2
Properties=species:S:1:pos:R:3:forces:R:3 energy=4.366436143328325 pbc="F F F"
Yb       0.00000000       0.00000000       0.00000000       0.00000000       0.00000000     -12.97516251
Yb       0.00000000       0.00000000       1.17939394       0.00000000       0.00000000      12.97516251
2
Properties=species:S:1:pos:R:3:forces:R:3 energy=3.6585750269547925 pbc="F F F"
Yb       0.00000000       0.00000000       0.00000000       0.00000000       0.00000000     -11.23307323
Yb       0.00000000       0.00000000       1.23818182       0.00000000       0.00000000      11.23307323
2
Properties=species:S:1:pos:R:3:forces:R:3 energy=3.043739460225583 pbc="F F F"
Yb       0.00000000       0.00000000       0.00000000       0.00000000       0.00000000      -9.61991882
Yb       0.00000000       0.00000000       1.29696970       0.00000000       0.00000000       9.61991882
2
Properties=species:S:1:pos:R:3:forces:R:3 energy=2.5390322438573434 pbc="F F F"
Yb       0.00000000       0.00000000       0.00000000       0.00000000       0.00000000      -7.45126820
Yb       0.00000000       0.00000000       1.35575758       0.00000000       0.00000000       7.45126820
2
Properties=species:S:1:pos:R:3:forces:R:3 energy=2.1742348081018292 pbc="F F F"
Yb       0.00000000       0.00000000       0.00000000       0.00000000       0.00000000      -4.96527386
Yb       0.00000000       0.00000000       1.41454545       0.00000000       0.00000000       4.96527386
2
Properties=species:S:1:pos:R:3:forces:R:3 energy=1.9472010166159206 pbc="F F F"
Yb       0.00000000       0.00000000       0.00000000       0.00000000       0.00000000      -2.87343693
Yb       0.00000000       0.00000000       1.47333333       0.00000000       0.00000000       2.87343693
2
Properties=species:S:1:pos:R:3:forces:R:3 energy=1.8213322947020065 pbc="F F F"
Yb       0.00000000       0.00000000       0.00000000       0.00000000       0.00000000      -1.52757204
Yb       0.00000000       0.00000000       1.53212121       0.00000000       0.00000000       1.52757204
2
Properties=species:S:1:pos:R:3:forces:R:3 energy=1.756905385442992 pbc="F F F"
Yb       0.00000000       0.00000000       0.00000000       0.00000000       0.00000000      -0.73502851
Yb       0.00000000       0.00000000       1.59090909       0.00000000       0.00000000       0.73502851
2
Properties=species:S:1:pos:R:3:forces:R:3 energy=1.7243932535469277 pbc="F F F"
Yb       0.00000000       0.00000000       0.00000000       0.00000000       0.00000000      -0.49902463
Yb       0.00000000       0.00000000       1.64969697       0.00000000       0.00000000       0.49902463
2
Properties=species:S:1:pos:R:3:forces:R:3 energy=1.6808668848890522 pbc="F F F"
Yb       0.00000000       0.00000000       0.00000000       0.00000000       0.00000000      -1.11793363
Yb       0.00000000       0.00000000       1.70848485       0.00000000       0.00000000       1.11793363
2
Properties=species:S:1:pos:R:3:forces:R:3 energy=1.5816854896387416 pbc="F F F"
Yb       0.00000000       0.00000000       0.00000000       0.00000000       0.00000000      -2.31013727
Yb       0.00000000       0.00000000       1.76727273       0.00000000       0.00000000       2.31013727
2
Properties=species:S:1:pos:R:3:forces:R:3 energy=1.4066323413744057 pbc="F F F"
Yb       0.00000000       0.00000000       0.00000000       0.00000000       0.00000000      -3.64443064
Yb       0.00000000       0.00000000       1.82606061       0.00000000       0.00000000       3.64443064
2
Properties=species:S:1:pos:R:3:forces:R:3 energy=1.1549681000825107 pbc="F F F"
Yb       0.00000000       0.00000000       0.00000000       0.00000000       0.00000000      -4.89091158
Yb       0.00000000       0.00000000       1.88484848       0.00000000       0.00000000       4.89091158
2
Properties=species:S:1:pos:R:3:forces:R:3 energy=0.8357944543769616 pbc="F F F"
Yb       0.00000000       0.00000000       0.00000000       0.00000000       0.00000000      -5.92272997
Yb       0.00000000       0.00000000       1.94363636       0.00000000       0.00000000       5.92272997
2
Properties=species:S:1:pos:R:3:forces:R:3 energy=0.46470999915218075 pbc="F F F"
Yb       0.00000000       0.00000000       0.00000000       0.00000000       0.00000000      -6.64507151
Yb       0.00000000       0.00000000       2.00242424       0.00000000       0.00000000       6.64507151
2
Properties=species:S:1:pos:R:3:forces:R:3 energy=0.061254226024291966 pbc="F F F"
Yb       0.00000000       0.00000000       0.00000000       0.00000000       0.00000000      -7.02530575
Yb       0.00000000       0.00000000       2.06121212       0.00000000       0.00000000       7.02530575
2
Properties=species:S:1:pos:R:3:forces:R:3 energy=-0.35534047552739656 pbc="F F F"
Yb       0.00000000       0.00000000       0.00000000       0.00000000       0.00000000      -7.10254431
Yb       0.00000000       0.00000000       2.12000000       0.00000000       0.00000000       7.10254431
2
Properties=species:S:1:pos:R:3:forces:R:3 energy=-0.7692564776260955 pbc="F F F"
Yb       0.00000000       0.00000000       0.00000000       0.00000000       0.00000000      -6.94587135
Yb       0.00000000       0.00000000       2.17878788       0.00000000       0.00000000       6.94587135
2
Properties=species:S:1:pos:R:3:forces:R:3 energy=-1.16870019384438 pbc="F F F"
Yb       0.00000000       0.00000000       0.00000000       0.00000000       0.00000000      -6.61988544
Yb       0.00000000       0.00000000       2.23757576       0.00000000       0.00000000       6.61988544
2
Properties=species:S:1:pos:R:3:forces:R:3 energy=-1.5452880373214064 pbc="F F F"
Yb       0.00000000       0.00000000       0.00000000       0.00000000       0.00000000      -6.17571163
Yb       0.00000000       0.00000000       2.29636364       0.00000000       0.00000000       6.17571163
2
Properties=species:S:1:pos:R:3:forces:R:3 energy=-1.8932666422896907 pbc="F F F"
Yb       0.00000000       0.00000000       0.00000000       0.00000000       0.00000000      -5.65245390
Yb       0.00000000       0.00000000       2.35515152       0.00000000       0.00000000       5.65245390
2
Properties=species:S:1:pos:R:3:forces:R:3 energy=-2.2089718352983287 pbc="F F F"
Yb       0.00000000       0.00000000       0.00000000       0.00000000       0.00000000      -5.08299494
Yb       0.00000000       0.00000000       2.41393939       0.00000000       0.00000000       5.08299494
2
Properties=species:S:1:pos:R:3:forces:R:3 energy=-2.4906519670458813 pbc="F F F"
Yb       0.00000000       0.00000000       0.00000000       0.00000000       0.00000000      -4.50075388
Yb       0.00000000       0.00000000       2.47272727       0.00000000       0.00000000       4.50075388
2
Properties=species:S:1:pos:R:3:forces:R:3 energy=-2.738581412295317 pbc="F F F"
Yb       0.00000000       0.00000000       0.00000000       0.00000000       0.00000000      -3.94025826
Yb       0.00000000       0.00000000       2.53151515       0.00000000       0.00000000       3.94025826
2
Properties=species:S:1:pos:R:3:forces:R:3 energy=-2.9549409027542333 pbc="F F F"
Yb       0.00000000       0.00000000       0.00000000       0.00000000       0.00000000      -3.43093228
Yb       0.00000000       0.00000000       2.59030303       0.00000000       0.00000000       3.43093228
2
Properties=species:S:1:pos:R:3:forces:R:3 energy=-3.1433334866741283 pbc="F F F"
Yb       0.00000000       0.00000000       0.00000000       0.00000000       0.00000000      -2.99046588
Yb       0.00000000       0.00000000       2.64909091       0.00000000       0.00000000       2.99046588
2
Properties=species:S:1:pos:R:3:forces:R:3 energy=-3.307984094323912 pbc="F F F"
Yb       0.00000000       0.00000000       0.00000000       0.00000000       0.00000000      -2.62285352
Yb       0.00000000       0.00000000       2.70787879       0.00000000       0.00000000       2.62285352
2
Properties=species:S:1:pos:R:3:forces:R:3 energy=-3.4530061330982753 pbc="F F F"
Yb       0.00000000       0.00000000       0.00000000       0.00000000       0.00000000      -2.32073998
Yb       0.00000000       0.00000000       2.76666667       0.00000000       0.00000000       2.32073998
2
Properties=species:S:1:pos:R:3:forces:R:3 energy=-3.5818497782540963 pbc="F F F"
Yb       0.00000000       0.00000000       0.00000000       0.00000000       0.00000000      -2.06976128
Yb       0.00000000       0.00000000       2.82545455       0.00000000       0.00000000       2.06976128
2
Properties=species:S:1:pos:R:3:forces:R:3 energy=-3.69702846478661 pbc="F F F"
Yb       0.00000000       0.00000000       0.00000000       0.00000000       0.00000000      -1.85295081
Yb       0.00000000       0.00000000       2.88424242       0.00000000       0.00000000       1.85295081
2
Properties=species:S:1:pos:R:3:forces:R:3 energy=-3.800069106295622 pbc="F F F"
Yb       0.00000000       0.00000000       0.00000000       0.00000000       0.00000000      -1.65447378
Yb       0.00000000       0.00000000       2.94303030       0.00000000       0.00000000       1.65447378
2
Properties=species:S:1:pos:R:3:forces:R:3 energy=-3.891677728541802 pbc="F F F"
Yb       0.00000000       0.00000000       0.00000000       0.00000000       0.00000000      -1.46249795
Yb       0.00000000       0.00000000       3.00181818       0.00000000       0.00000000       1.46249795
2
Properties=species:S:1:pos:R:3:forces:R:3 energy=-3.9720285508058955 pbc="F F F"
Yb       0.00000000       0.00000000       0.00000000       0.00000000       0.00000000      -1.27100229
Yb       0.00000000       0.00000000       3.06060606       0.00000000       0.00000000       1.27100229
2
Properties=species:S:1:pos:R:3:forces:R:3 energy=-4.041123107625289 pbc="F F F"
Yb       0.00000000       0.00000000       0.00000000       0.00000000       0.00000000      -1.08001590
Yb       0.00000000       0.00000000       3.11939394       0.00000000       0.00000000       1.08001590
2
Properties=species:S:1:pos:R:3:forces:R:3 energy=-4.099109659997922 pbc="F F F"
Yb       0.00000000       0.00000000       0.00000000       0.00000000       0.00000000      -0.89404720
Yb       0.00000000       0.00000000       3.17818182       0.00000000       0.00000000       0.89404720
2
Properties=species:S:1:pos:R:3:forces:R:3 energy=-4.146462806935725 pbc="F F F"
Yb       0.00000000       0.00000000       0.00000000       0.00000000       0.00000000      -0.71930885
Yb       0.00000000       0.00000000       3.23696970       0.00000000       0.00000000       0.71930885
2
Properties=species:S:1:pos:R:3:forces:R:3 energy=-4.1840043395866955 pbc="F F F"
Yb       0.00000000       0.00000000       0.00000000       0.00000000       0.00000000      -0.56085175
Yb       0.00000000       0.00000000       3.29575758       0.00000000       0.00000000       0.56085175
2
Properties=species:S:1:pos:R:3:forces:R:3 energy=-4.212768925211746 pbc="F F F"
Yb       0.00000000       0.00000000       0.00000000       0.00000000       0.00000000      -0.42083171
Yb       0.00000000       0.00000000       3.35454545       0.00000000       0.00000000       0.42083171
2
Properties=species:S:1:pos:R:3:forces:R:3 energy=-4.2338272869621285 pbc="F F F"
Yb       0.00000000       0.00000000       0.00000000       0.00000000       0.00000000      -0.29828438
Yb       0.00000000       0.00000000       3.41333333       0.00000000       0.00000000       0.29828438
2
Properties=species:S:1:pos:R:3:forces:R:3 energy=-4.248122737433191 pbc="F F F"
Yb       0.00000000       0.00000000       0.00000000       0.00000000       0.00000000      -0.19013071
Yb       0.00000000       0.00000000       3.47212121       0.00000000       0.00000000       0.19013071
2
Properties=species:S:1:pos:R:3:forces:R:3 energy=-4.256390122683127 pbc="F F F"
Yb       0.00000000       0.00000000       0.00000000       0.00000000       0.00000000      -0.09263980
Yb       0.00000000       0.00000000       3.53090909       0.00000000       0.00000000       0.09263980
2
Properties=species:S:1:pos:R:3:forces:R:3 energy=-4.2591615506145155 pbc="F F F"
Yb       0.00000000       0.00000000       0.00000000       0.00000000       0.00000000      -0.00270694
Yb       0.00000000       0.00000000       3.58969697       0.00000000       0.00000000       0.00270694
2
Properties=species:S:1:pos:R:3:forces:R:3 energy=-4.256821843468851 pbc="F F F"
Yb       0.00000000       0.00000000       0.00000000       0.00000000       0.00000000       0.08138692
Yb       0.00000000       0.00000000       3.64848485       0.00000000       0.00000000      -0.08138692
2
Properties=species:S:1:pos:R:3:forces:R:3 energy=-4.249703778545297 pbc="F F F"
Yb       0.00000000       0.00000000       0.00000000       0.00000000       0.00000000       0.15973884
Yb       0.00000000       0.00000000       3.70727273       0.00000000       0.00000000      -0.15973884
2
Properties=species:S:1:pos:R:3:forces:R:3 energy=-4.238179214783055 pbc="F F F"
Yb       0.00000000       0.00000000       0.00000000       0.00000000       0.00000000       0.23098034
Yb       0.00000000       0.00000000       3.76606061       0.00000000       0.00000000      -0.23098034
2
Properties=species:S:1:pos:R:3:forces:R:3 energy=-4.222732576368886 pbc="F F F"
Yb       0.00000000       0.00000000       0.00000000       0.00000000       0.00000000       0.29271957
Yb       0.00000000       0.00000000       3.82484848       0.00000000       0.00000000      -0.29271957
2
Properties=species:S:1:pos:R:3:forces:R:3 energy=-4.204001753026759 pbc="F F F"
Yb       0.00000000       0.00000000       0.00000000       0.00000000       0.00000000       0.34224984
Yb       0.00000000       0.00000000       3.88363636       0.00000000       0.00000000      -0.34224984
2
Properties=species:S:1:pos:R:3:forces:R:3 energy=-4.182774907877567 pbc="F F F"
Yb       0.00000000       0.00000000       0.00000000       0.00000000       0.00000000       0.37739375
Yb       0.00000000       0.00000000       3.94242424       0.00000000       0.00000000      -0.37739375
2
Properties=species:S:1:pos:R:3:forces:R:3 energy=-4.159930796766614 pbc="F F F"
Yb       0.00000000       0.00000000       0.00000000       0.00000000       0.00000000       0.39725095
Yb       0.00000000       0.00000000       4.00121212       0.00000000       0.00000000      -0.39725095
2
Properties=species:S:1:pos:R:3:forces:R:3 energy=-4.136354005291056 pbc="F F F"
Yb       0.00000000       0.00000000       0.00000000       0.00000000       0.00000000       0.40255195
Yb       0.00000000       0.00000000       4.06000000       0.00000000       0.00000000      -0.40255195
2
Properties=species:S:1:pos:R:3:forces:R:3 energy=-4.112843402401173 pbc="F F F"
Yb       0.00000000       0.00000000       0.00000000       0.00000000       0.00000000       0.39549163
Yb       0.00000000       0.00000000       4.11878788       0.00000000       0.00000000      -0.39549163
2
Properties=species:S:1:pos:R:3:forces:R:3 energy=-4.090034930794599 pbc="F F F"
Yb       0.00000000       0.00000000       0.00000000       0.00000000       0.00000000       0.37919864
Yb       0.00000000       0.00000000       4.17757576       0.00000000       0.00000000      -0.37919864
2
Properties=species:S:1:pos:R:3:forces:R:3 energy=-4.068371365770647 pbc="F F F"
Yb       0.00000000       0.00000000       0.00000000       0.00000000       0.00000000       0.35712543
Yb       0.00000000       0.00000000       4.23636364       0.00000000       0.00000000      -0.35712543
2
Properties=species:S:1:pos:R:3:forces:R:3 energy=-4.048094008593904 pbc="F F F"
Yb       0.00000000       0.00000000       0.00000000       0.00000000       0.00000000       0.33254376
Yb       0.00000000       0.00000000       4.29515152       0.00000000       0.00000000      -0.33254376
2
Properties=species:S:1:pos:R:3:forces:R:3 energy=-4.029266604379875 pbc="F F F"
Yb       0.00000000       0.00000000       0.00000000       0.00000000       0.00000000       0.30824310
Yb       0.00000000       0.00000000       4.35393939       0.00000000       0.00000000      -0.30824310
2
Properties=species:S:1:pos:R:3:forces:R:3 energy=-4.011804880656212 pbc="F F F"
Yb       0.00000000       0.00000000       0.00000000       0.00000000       0.00000000       0.28635305
Yb       0.00000000       0.00000000       4.41272727       0.00000000       0.00000000      -0.28635305
2
Properties=species:S:1:pos:R:3:forces:R:3 energy=-3.9955231720341677 pbc="F F F"
Yb       0.00000000       0.00000000       0.00000000       0.00000000       0.00000000       0.26826745
Yb       0.00000000       0.00000000       4.47151515       0.00000000       0.00000000      -0.26826745
2
Properties=species:S:1:pos:R:3:forces:R:3 energy=-3.980175848020567 pbc="F F F"
Yb       0.00000000       0.00000000       0.00000000       0.00000000       0.00000000       0.25459671
Yb       0.00000000       0.00000000       4.53030303       0.00000000       0.00000000      -0.25459671
2
Properties=species:S:1:pos:R:3:forces:R:3 energy=-3.9655050981039284 pbc="F F F"
Yb       0.00000000       0.00000000       0.00000000       0.00000000       0.00000000       0.24518123
Yb       0.00000000       0.00000000       4.58909091       0.00000000       0.00000000      -0.24518123
2
Properties=species:S:1:pos:R:3:forces:R:3 energy=-3.9512815262693586 pbc="F F F"
Yb       0.00000000       0.00000000       0.00000000       0.00000000       0.00000000       0.23918724
Yb       0.00000000       0.00000000       4.64787879       0.00000000       0.00000000      -0.23918724
2
Properties=species:S:1:pos:R:3:forces:R:3 energy=-3.9373410108436477 pbc="F F F"
Yb       0.00000000       0.00000000       0.00000000       0.00000000       0.00000000       0.23528220
Yb       0.00000000       0.00000000       4.70666667       0.00000000       0.00000000      -0.23528220
2
Properties=species:S:1:pos:R:3:forces:R:3 energy=-3.9236072615615236 pbc="F F F"
Yb       0.00000000       0.00000000       0.00000000       0.00000000       0.00000000       0.23192918
Yb       0.00000000       0.00000000       4.76545455       0.00000000       0.00000000      -0.23192918
2
Properties=species:S:1:pos:R:3:forces:R:3 energy=-3.910087753778519 pbc="F F F"
Yb       0.00000000       0.00000000       0.00000000       0.00000000       0.00000000       0.22774874
Yb       0.00000000       0.00000000       4.82424242       0.00000000       0.00000000      -0.22774874
2
Properties=species:S:1:pos:R:3:forces:R:3 energy=-3.8968637022193593 pbc="F F F"
Yb       0.00000000       0.00000000       0.00000000       0.00000000       0.00000000       0.22187361
Yb       0.00000000       0.00000000       4.88303030       0.00000000       0.00000000      -0.22187361
2
Properties=species:S:1:pos:R:3:forces:R:3 energy=-3.8840373324581177 pbc="F F F"
Yb       0.00000000       0.00000000       0.00000000       0.00000000       0.00000000       0.21418613
Yb       0.00000000       0.00000000       4.94181818       0.00000000       0.00000000      -0.21418613
2
Properties=species:S:1:pos:R:3:forces:R:3 energy=-3.8717028001872063 pbc="F F F"
Yb       0.00000000       0.00000000       0.00000000       0.00000000       0.00000000       0.20534605
Yb       0.00000000       0.00000000       5.00060606       0.00000000       0.00000000      -0.20534605
2
Properties=species:S:1:pos:R:3:forces:R:3 energy=-3.859893074559393 pbc="F F F"
Yb       0.00000000       0.00000000       0.00000000       0.00000000       0.00000000       0.19650450
Yb       0.00000000       0.00000000       5.05939394       0.00000000       0.00000000      -0.19650450
2
Properties=species:S:1:pos:R:3:forces:R:3 energy=-3.848577859776772 pbc="F F F"
Yb       0.00000000       0.00000000       0.00000000       0.00000000       0.00000000       0.18869922
Yb       0.00000000       0.00000000       5.11818182       0.00000000       0.00000000      -0.18869922
2
Properties=species:S:1:pos:R:3:forces:R:3 energy=-3.8376848460225252 pbc="F F F"
Yb       0.00000000       0.00000000       0.00000000       0.00000000       0.00000000       0.18199003
Yb       0.00000000       0.00000000       5.17696970       0.00000000       0.00000000      -0.18199003
2
Properties=species:S:1:pos:R:3:forces:R:3 energy=-3.8271897809986677 pbc="F F F"
Yb       0.00000000       0.00000000       0.00000000       0.00000000       0.00000000       0.17475913
Yb       0.00000000       0.00000000       5.23575758       0.00000000       0.00000000      -0.17475913
2
Properties=species:S:1:pos:R:3:forces:R:3 energy=-3.817197624941704 pbc="F F F"
Yb       0.00000000       0.00000000       0.00000000       0.00000000       0.00000000       0.16458045
Yb       0.00000000       0.00000000       5.29454545       0.00000000       0.00000000      -0.16458045
2
Properties=species:S:1:pos:R:3:forces:R:3 energy=-3.8078782092844903 pbc="F F F"
Yb       0.00000000       0.00000000       0.00000000       0.00000000       0.00000000       0.15270433
Yb       0.00000000       0.00000000       5.35333333       0.00000000       0.00000000      -0.15270433
2
Properties=species:S:1:pos:R:3:forces:R:3 energy=-3.7991120330108075 pbc="F F F"
Yb       0.00000000       0.00000000       0.00000000       0.00000000       0.00000000       0.14743087
Yb       0.00000000       0.00000000       5.41212121       0.00000000       0.00000000      -0.14743087
2
Properties=species:S:1:pos:R:3:forces:R:3 energy=-3.790325690479337 pbc="F F F"
Yb       0.00000000       0.00000000       0.00000000       0.00000000       0.00000000       0.15252660
Yb       0.00000000       0.00000000       5.47090909       0.00000000       0.00000000      -0.15252660
2
Properties=species:S:1:pos:R:3:forces:R:3 energy=-3.781234211844318 pbc="F F F"
Yb       0.00000000       0.00000000       0.00000000       0.00000000       0.00000000       0.15485096
Yb       0.00000000       0.00000000       5.52969697       0.00000000       0.00000000      -0.15485096
2
Properties=species:S:1:pos:R:3:forces:R:3 energy=-3.7723913268004714 pbc="F F F"
Yb       0.00000000       0.00000000       0.00000000       0.00000000       0.00000000       0.14420447
Yb       0.00000000       0.00000000       5.58848485       0.00000000       0.00000000      -0.14420447
2
Properties=species:S:1:pos:R:3:forces:R:3 energy=-3.7643130989067592 pbc="F F F"
Yb       0.00000000       0.00000000       0.00000000       0.00000000       0.00000000       0.13239077
Yb       0.00000000       0.00000000       5.64727273       0.00000000       0.00000000      -0.13239077
2
Properties=species:S:1:pos:R:3:forces:R:3 energy=-3.7564434178681982 pbc="F F F"
Yb       0.00000000       0.00000000       0.00000000       0.00000000       0.00000000       0.13928516
Yb       0.00000000       0.00000000       5.70606061       0.00000000       0.00000000      -0.13928516
2
Properties=species:S:1:pos:R:3:forces:R:3 energy=-3.7476095794266557 pbc="F F F"
Yb       0.00000000       0.00000000       0.00000000       0.00000000       0.00000000       0.16046812
Yb       0.00000000       0.00000000       5.76484848       0.00000000       0.00000000      -0.16046812
2
Properties=species:S:1:pos:R:3:forces:R:3 energy=-3.738076182224258 pbc="F F F"
Yb       0.00000000       0.00000000       0.00000000       0.00000000       0.00000000       0.15660146
Yb       0.00000000       0.00000000       5.82363636       0.00000000       0.00000000      -0.15660146
2
Properties=species:S:1:pos:R:3:forces:R:3 energy=-3.730122959404464 pbc="F F F"
Yb       0.00000000       0.00000000       0.00000000       0.00000000       0.00000000       0.10933630
Yb       0.00000000       0.00000000       5.88242424       0.00000000       0.00000000      -0.10933630
2
Properties=species:S:1:pos:R:3:forces:R:3 energy=-3.7253917707054263 pbc="F F F"
Yb       0.00000000       0.00000000       0.00000000       0.00000000       0.00000000       0.05370845
Yb       0.00000000       0.00000000       5.94121212       0.00000000       0.00000000      -0.05370845
2
Properties=species:S:1:pos:R:3:forces:R:3 energy=-3.723145721512459 pbc="F F F"
Yb       0.00000000       0.00000000       0.00000000       0.00000000       0.00000000       0.03022114
Yb       0.00000000       0.00000000       6.00000000       0.00000000       0.00000000      -0.03022114
