2
Properties=species:S:1:pos:R:3:forces:R:3 energy=5125.567271797909 pbc="F F F"
As       0.00000000       0.00000000       0.00000000       0.00000000       0.00000000  -80387.60156250
As       0.00000000       0.00000000       0.18000000       0.00000000       0.00000000   80387.60156250
2
Properties=species:S:1:pos:R:3:forces:R:3 energy=2223.448863594784 pbc="F F F"
As       0.00000000       0.00000000       0.00000000       0.00000000       0.00000000  -28738.02539062
As       0.00000000       0.00000000       0.23878788       0.00000000       0.00000000   28738.02539062
2
Properties=species:S:1:pos:R:3:forces:R:3 energy=1104.486949532284 pbc="F F F"
As       0.00000000       0.00000000       0.00000000       0.00000000       0.00000000  -12102.20800781
As       0.00000000       0.00000000       0.29757576       0.00000000       0.00000000   12102.20800781
2
Properties=species:S:1:pos:R:3:forces:R:3 energy=609.8219104761196 pbc="F F F"
As       0.00000000       0.00000000       0.00000000       0.00000000       0.00000000   -5653.55615234
As       0.00000000       0.00000000       0.35636364       0.00000000       0.00000000    5653.55615234
2
Properties=species:S:1:pos:R:3:forces:R:3 energy=370.978831869174 pbc="F F F"
As       0.00000000       0.00000000       0.00000000       0.00000000       0.00000000   -2834.53857422
As       0.00000000       0.00000000       0.41515152       0.00000000       0.00000000    2834.53857422
2
Properties=species:S:1:pos:R:3:forces:R:3 energy=248.16120494139156 pbc="F F F"
As       0.00000000       0.00000000       0.00000000       0.00000000       0.00000000   -1502.02001953
As       0.00000000       0.00000000       0.47393939       0.00000000       0.00000000    1502.02001953
2
Properties=species:S:1:pos:R:3:forces:R:3 energy=181.5071217274523 pbc="F F F"
As       0.00000000       0.00000000       0.00000000       0.00000000       0.00000000    -840.01690674
As       0.00000000       0.00000000       0.53272727       0.00000000       0.00000000     840.01690674
2
Properties=species:S:1:pos:R:3:forces:R:3 energy=143.2435109541328 pbc="F F F"
As       0.00000000       0.00000000       0.00000000       0.00000000       0.00000000    -497.35412598
As       0.00000000       0.00000000       0.59151515       0.00000000       0.00000000     497.35412598
2
Properties=species:S:1:pos:R:3:forces:R:3 energy=120.15896975054144 pbc="F F F"
As       0.00000000       0.00000000       0.00000000       0.00000000       0.00000000    -303.61883545
As       0.00000000       0.00000000       0.65030303       0.00000000       0.00000000     303.61883545
2
Properties=species:S:1:pos:R:3:forces:R:3 energy=106.68722157588871 pbc="F F F"
As       0.00000000       0.00000000       0.00000000       0.00000000       0.00000000    -152.79525757
As       0.00000000       0.00000000       0.70909091       0.00000000       0.00000000     152.79525757
2
Properties=species:S:1:pos:R:3:forces:R:3 energy=101.84908708269641 pbc="F F F"
As       0.00000000       0.00000000       0.00000000       0.00000000       0.00000000     -33.06302261
As       0.00000000       0.00000000       0.76787879       0.00000000       0.00000000      33.06302261
2
Properties=species:S:1:pos:R:3:forces:R:3 energy=99.80695034218155 pbc="F F F"
As       0.00000000       0.00000000       0.00000000       0.00000000       0.00000000     -57.17241287
As       0.00000000       0.00000000       0.82666667       0.00000000       0.00000000      57.17241287
2
Properties=species:S:1:pos:R:3:forces:R:3 energy=93.31821190188549 pbc="F F F"
As       0.00000000       0.00000000       0.00000000       0.00000000       0.00000000    -161.71171570
As       0.00000000       0.00000000       0.88545455       0.00000000       0.00000000     161.71171570
2
Properties=species:S:1:pos:R:3:forces:R:3 energy=81.4487211325317 pbc="F F F"
As       0.00000000       0.00000000       0.00000000       0.00000000       0.00000000    -236.97621155
As       0.00000000       0.00000000       0.94424242       0.00000000       0.00000000     236.97621155
2
Properties=species:S:1:pos:R:3:forces:R:3 energy=66.38809907232414 pbc="F F F"
As       0.00000000       0.00000000       0.00000000       0.00000000       0.00000000    -265.89547729
As       0.00000000       0.00000000       1.00303030       0.00000000       0.00000000     265.89547729
2
Properties=species:S:1:pos:R:3:forces:R:3 energy=51.18344969496559 pbc="F F F"
As       0.00000000       0.00000000       0.00000000       0.00000000       0.00000000    -244.98834229
As       0.00000000       0.00000000       1.06181818       0.00000000       0.00000000     244.98834229
2
Properties=species:S:1:pos:R:3:forces:R:3 energy=38.05845931375243 pbc="F F F"
As       0.00000000       0.00000000       0.00000000       0.00000000       0.00000000    -199.15444946
As       0.00000000       0.00000000       1.12060606       0.00000000       0.00000000     199.15444946
2
Properties=species:S:1:pos:R:3:forces:R:3 energy=27.90439774240326 pbc="F F F"
As       0.00000000       0.00000000       0.00000000       0.00000000       0.00000000    -147.03205872
As       0.00000000       0.00000000       1.17939394       0.00000000       0.00000000     147.03205872
2
Properties=species:S:1:pos:R:3:forces:R:3 energy=20.412595079524763 pbc="F F F"
As       0.00000000       0.00000000       0.00000000       0.00000000       0.00000000    -112.15027618
As       0.00000000       0.00000000       1.23818182       0.00000000       0.00000000     112.15027618
2
Properties=species:S:1:pos:R:3:forces:R:3 energy=14.32767182886396 pbc="F F F"
As       0.00000000       0.00000000       0.00000000       0.00000000       0.00000000     -96.35434723
As       0.00000000       0.00000000       1.29696970       0.00000000       0.00000000      96.35434723
2
Properties=species:S:1:pos:R:3:forces:R:3 energy=9.11652615447118 pbc="F F F"
As       0.00000000       0.00000000       0.00000000       0.00000000       0.00000000     -79.59494781
As       0.00000000       0.00000000       1.35575758       0.00000000       0.00000000      79.59494781
2
Properties=species:S:1:pos:R:3:forces:R:3 energy=5.080186548748856 pbc="F F F"
As       0.00000000       0.00000000       0.00000000       0.00000000       0.00000000     -57.84296417
As       0.00000000       0.00000000       1.41454545       0.00000000       0.00000000      57.84296417
2
Properties=species:S:1:pos:R:3:forces:R:3 energy=2.1880908769761773 pbc="F F F"
As       0.00000000       0.00000000       0.00000000       0.00000000       0.00000000     -42.00103378
As       0.00000000       0.00000000       1.47333333       0.00000000       0.00000000      42.00103378
2
Properties=species:S:1:pos:R:3:forces:R:3 energy=0.020176437136531805 pbc="F F F"
As       0.00000000       0.00000000       0.00000000       0.00000000       0.00000000     -32.23374176
As       0.00000000       0.00000000       1.53212121       0.00000000       0.00000000      32.23374176
2
Properties=species:S:1:pos:R:3:forces:R:3 energy=-1.628220401566457 pbc="F F F"
As       0.00000000       0.00000000       0.00000000       0.00000000       0.00000000     -24.07660866
As       0.00000000       0.00000000       1.59090909       0.00000000       0.00000000      24.07660866
2
Properties=species:S:1:pos:R:3:forces:R:3 energy=-2.8538935973202797 pbc="F F F"
As       0.00000000       0.00000000       0.00000000       0.00000000       0.00000000     -18.06055641
As       0.00000000       0.00000000       1.64969697       0.00000000       0.00000000      18.06055641
2
Properties=species:S:1:pos:R:3:forces:R:3 energy=-3.796471813217996 pbc="F F F"
As       0.00000000       0.00000000       0.00000000       0.00000000       0.00000000     -14.28362656
As       0.00000000       0.00000000       1.70848485       0.00000000       0.00000000      14.28362656
2
Properties=species:S:1:pos:R:3:forces:R:3 energy=-4.553711624460089 pbc="F F F"
As       0.00000000       0.00000000       0.00000000       0.00000000       0.00000000     -11.57150269
As       0.00000000       0.00000000       1.76727273       0.00000000       0.00000000      11.57150269
2
Properties=species:S:1:pos:R:3:forces:R:3 energy=-5.162853461901168 pbc="F F F"
As       0.00000000       0.00000000       0.00000000       0.00000000       0.00000000      -9.17702103
As       0.00000000       0.00000000       1.82606061       0.00000000       0.00000000       9.17702103
2
Properties=species:S:1:pos:R:3:forces:R:3 energy=-5.63484810011548 pbc="F F F"
As       0.00000000       0.00000000       0.00000000       0.00000000       0.00000000      -6.89814281
As       0.00000000       0.00000000       1.88484848       0.00000000       0.00000000       6.89814281
2
Properties=species:S:1:pos:R:3:forces:R:3 energy=-5.976516998921898 pbc="F F F"
As       0.00000000       0.00000000       0.00000000       0.00000000       0.00000000      -4.75427961
As       0.00000000       0.00000000       1.94363636       0.00000000       0.00000000       4.75427961
2
Properties=species:S:1:pos:R:3:forces:R:3 energy=-6.1981061042184 pbc="F F F"
As       0.00000000       0.00000000       0.00000000       0.00000000       0.00000000      -2.82834387
As       0.00000000       0.00000000       2.00242424       0.00000000       0.00000000       2.82834387
2
Properties=species:S:1:pos:R:3:forces:R:3 energy=-6.31500207994911 pbc="F F F"
As       0.00000000       0.00000000       0.00000000       0.00000000       0.00000000      -1.20417047
As       0.00000000       0.00000000       2.06121212       0.00000000       0.00000000       1.20417047
2
Properties=species:S:1:pos:R:3:forces:R:3 energy=-6.346512997476907 pbc="F F F"
As       0.00000000       0.00000000       0.00000000       0.00000000       0.00000000       0.07358306
As       0.00000000       0.00000000       2.12000000       0.00000000       0.00000000      -0.07358306
2
Properties=species:S:1:pos:R:3:forces:R:3 energy=-6.313001679287325 pbc="F F F"
As       0.00000000       0.00000000       0.00000000       0.00000000       0.00000000       1.01330841
As       0.00000000       0.00000000       2.17878788       0.00000000       0.00000000      -1.01330841
2
Properties=species:S:1:pos:R:3:forces:R:3 energy=-6.233061297465854 pbc="F F F"
As       0.00000000       0.00000000       0.00000000       0.00000000       0.00000000       1.66322732
As       0.00000000       0.00000000       2.23757576       0.00000000       0.00000000      -1.66322732
2
Properties=species:S:1:pos:R:3:forces:R:3 energy=-6.121870860541782 pbc="F F F"
As       0.00000000       0.00000000       0.00000000       0.00000000       0.00000000       2.08714819
As       0.00000000       0.00000000       2.29636364       0.00000000       0.00000000      -2.08714819
2
Properties=species:S:1:pos:R:3:forces:R:3 energy=-5.990933865543815 pbc="F F F"
As       0.00000000       0.00000000       0.00000000       0.00000000       0.00000000       2.34370708
As       0.00000000       0.00000000       2.35515152       0.00000000       0.00000000      -2.34370708
2
Properties=species:S:1:pos:R:3:forces:R:3 energy=-5.848713015774974 pbc="F F F"
As       0.00000000       0.00000000       0.00000000       0.00000000       0.00000000       2.47712398
As       0.00000000       0.00000000       2.41393939       0.00000000       0.00000000      -2.47712398
2
Properties=species:S:1:pos:R:3:forces:R:3 energy=-5.701469463714502 pbc="F F F"
As       0.00000000       0.00000000       0.00000000       0.00000000       0.00000000       2.51923704
As       0.00000000       0.00000000       2.47272727       0.00000000       0.00000000      -2.51923704
2
Properties=species:S:1:pos:R:3:forces:R:3 energy=-5.553776857313514 pbc="F F F"
As       0.00000000       0.00000000       0.00000000       0.00000000       0.00000000       2.49679232
As       0.00000000       0.00000000       2.53151515       0.00000000       0.00000000      -2.49679232
2
Properties=species:S:1:pos:R:3:forces:R:3 energy=-5.408651099890652 pbc="F F F"
As       0.00000000       0.00000000       0.00000000       0.00000000       0.00000000       2.43641114
As       0.00000000       0.00000000       2.59030303       0.00000000       0.00000000      -2.43641114
2
Properties=species:S:1:pos:R:3:forces:R:3 energy=-5.267568568146584 pbc="F F F"
As       0.00000000       0.00000000       0.00000000       0.00000000       0.00000000       2.36275935
As       0.00000000       0.00000000       2.64909091       0.00000000       0.00000000      -2.36275935
2
Properties=species:S:1:pos:R:3:forces:R:3 energy=-5.130776963977803 pbc="F F F"
As       0.00000000       0.00000000       0.00000000       0.00000000       0.00000000       2.29216695
As       0.00000000       0.00000000       2.70787879       0.00000000       0.00000000      -2.29216695
2
Properties=species:S:1:pos:R:3:forces:R:3 energy=-4.997929876868396 pbc="F F F"
As       0.00000000       0.00000000       0.00000000       0.00000000       0.00000000       2.22808194
As       0.00000000       0.00000000       2.76666667       0.00000000       0.00000000      -2.22808194
2
Properties=species:S:1:pos:R:3:forces:R:3 energy=-4.868823199204482 pbc="F F F"
As       0.00000000       0.00000000       0.00000000       0.00000000       0.00000000       2.16315055
As       0.00000000       0.00000000       2.82545455       0.00000000       0.00000000      -2.16315055
2
Properties=species:S:1:pos:R:3:forces:R:3 energy=-4.743830666845301 pbc="F F F"
As       0.00000000       0.00000000       0.00000000       0.00000000       0.00000000       2.08636689
As       0.00000000       0.00000000       2.88424242       0.00000000       0.00000000      -2.08636689
2
Properties=species:S:1:pos:R:3:forces:R:3 energy=-4.623908119139258 pbc="F F F"
As       0.00000000       0.00000000       0.00000000       0.00000000       0.00000000       1.98987293
As       0.00000000       0.00000000       2.94303030       0.00000000       0.00000000      -1.98987293
2
Properties=species:S:1:pos:R:3:forces:R:3 energy=-4.510294615491078 pbc="F F F"
As       0.00000000       0.00000000       0.00000000       0.00000000       0.00000000       1.87188220
As       0.00000000       0.00000000       3.00181818       0.00000000       0.00000000      -1.87188220
2
Properties=species:S:1:pos:R:3:forces:R:3 energy=-4.4041706648699215 pbc="F F F"
As       0.00000000       0.00000000       0.00000000       0.00000000       0.00000000       1.73607266
As       0.00000000       0.00000000       3.06060606       0.00000000       0.00000000      -1.73607266
2
Properties=species:S:1:pos:R:3:forces:R:3 energy=-4.306391786695265 pbc="F F F"
As       0.00000000       0.00000000       0.00000000       0.00000000       0.00000000       1.58924592
As       0.00000000       0.00000000       3.11939394       0.00000000       0.00000000      -1.58924592
2
Properties=species:S:1:pos:R:3:forces:R:3 energy=-4.217377599388515 pbc="F F F"
As       0.00000000       0.00000000       0.00000000       0.00000000       0.00000000       1.43915081
As       0.00000000       0.00000000       3.17818182       0.00000000       0.00000000      -1.43915081
2
Properties=species:S:1:pos:R:3:forces:R:3 energy=-4.137100299425052 pbc="F F F"
As       0.00000000       0.00000000       0.00000000       0.00000000       0.00000000       1.29320359
As       0.00000000       0.00000000       3.23696970       0.00000000       0.00000000      -1.29320359
2
Properties=species:S:1:pos:R:3:forces:R:3 energy=-4.06512881356776 pbc="F F F"
As       0.00000000       0.00000000       0.00000000       0.00000000       0.00000000       1.15741801
As       0.00000000       0.00000000       3.29575758       0.00000000       0.00000000      -1.15741801
2
Properties=species:S:1:pos:R:3:forces:R:3 energy=-4.000743315202499 pbc="F F F"
As       0.00000000       0.00000000       0.00000000       0.00000000       0.00000000       1.03547502
As       0.00000000       0.00000000       3.35454545       0.00000000       0.00000000      -1.03547502
2
Properties=species:S:1:pos:R:3:forces:R:3 energy=-3.9430861967666155 pbc="F F F"
As       0.00000000       0.00000000       0.00000000       0.00000000       0.00000000       0.92851424
As       0.00000000       0.00000000       3.41333333       0.00000000       0.00000000      -0.92851424
2
Properties=species:S:1:pos:R:3:forces:R:3 energy=-3.891295087637086 pbc="F F F"
As       0.00000000       0.00000000       0.00000000       0.00000000       0.00000000       0.83564758
As       0.00000000       0.00000000       3.47212121       0.00000000       0.00000000      -0.83564758
2
Properties=species:S:1:pos:R:3:forces:R:3 energy=-3.844598195227805 pbc="F F F"
As       0.00000000       0.00000000       0.00000000       0.00000000       0.00000000       0.75484216
As       0.00000000       0.00000000       3.53090909       0.00000000       0.00000000      -0.75484216
2
Properties=species:S:1:pos:R:3:forces:R:3 energy=-3.8023537230908446 pbc="F F F"
As       0.00000000       0.00000000       0.00000000       0.00000000       0.00000000       0.68376106
As       0.00000000       0.00000000       3.58969697       0.00000000       0.00000000      -0.68376106
2
Properties=species:S:1:pos:R:3:forces:R:3 energy=-3.764053511223652 pbc="F F F"
As       0.00000000       0.00000000       0.00000000       0.00000000       0.00000000       0.62039298
As       0.00000000       0.00000000       3.64848485       0.00000000       0.00000000      -0.62039298
2
Properties=species:S:1:pos:R:3:forces:R:3 energy=-3.729287621742619 pbc="F F F"
As       0.00000000       0.00000000       0.00000000       0.00000000       0.00000000       0.56334221
As       0.00000000       0.00000000       3.70727273       0.00000000       0.00000000      -0.56334221
2
Properties=species:S:1:pos:R:3:forces:R:3 energy=-3.697709118625724 pbc="F F F"
As       0.00000000       0.00000000       0.00000000       0.00000000       0.00000000       0.51186168
As       0.00000000       0.00000000       3.76606061       0.00000000       0.00000000      -0.51186168
2
Properties=species:S:1:pos:R:3:forces:R:3 energy=-3.669001041571633 pbc="F F F"
As       0.00000000       0.00000000       0.00000000       0.00000000       0.00000000       0.46569559
As       0.00000000       0.00000000       3.82484848       0.00000000       0.00000000      -0.46569559
2
Properties=species:S:1:pos:R:3:forces:R:3 energy=-3.6428506251149346 pbc="F F F"
As       0.00000000       0.00000000       0.00000000       0.00000000       0.00000000       0.42483345
As       0.00000000       0.00000000       3.88363636       0.00000000       0.00000000      -0.42483345
2
Properties=species:S:1:pos:R:3:forces:R:3 energy=-3.6189459924442557 pbc="F F F"
As       0.00000000       0.00000000       0.00000000       0.00000000       0.00000000       0.38930553
As       0.00000000       0.00000000       3.94242424       0.00000000       0.00000000      -0.38930553
2
Properties=species:S:1:pos:R:3:forces:R:3 energy=-3.596974918959855 pbc="F F F"
As       0.00000000       0.00000000       0.00000000       0.00000000       0.00000000       0.35904679
As       0.00000000       0.00000000       4.00121212       0.00000000       0.00000000      -0.35904679
2
Properties=species:S:1:pos:R:3:forces:R:3 energy=-3.5766316133638862 pbc="F F F"
As       0.00000000       0.00000000       0.00000000       0.00000000       0.00000000       0.33385661
As       0.00000000       0.00000000       4.06000000       0.00000000       0.00000000      -0.33385661
2
Properties=species:S:1:pos:R:3:forces:R:3 energy=-3.5576281490809074 pbc="F F F"
As       0.00000000       0.00000000       0.00000000       0.00000000       0.00000000       0.31341574
As       0.00000000       0.00000000       4.11878788       0.00000000       0.00000000      -0.31341574
2
Properties=species:S:1:pos:R:3:forces:R:3 energy=-3.5396966963882086 pbc="F F F"
As       0.00000000       0.00000000       0.00000000       0.00000000       0.00000000       0.29729101
As       0.00000000       0.00000000       4.17757576       0.00000000       0.00000000      -0.29729101
2
Properties=species:S:1:pos:R:3:forces:R:3 energy=-3.5226001182033397 pbc="F F F"
As       0.00000000       0.00000000       0.00000000       0.00000000       0.00000000       0.28491026
As       0.00000000       0.00000000       4.23636364       0.00000000       0.00000000      -0.28491026
2
Properties=species:S:1:pos:R:3:forces:R:3 energy=-3.50613978721207 pbc="F F F"
As       0.00000000       0.00000000       0.00000000       0.00000000       0.00000000       0.27548403
As       0.00000000       0.00000000       4.29515152       0.00000000       0.00000000      -0.27548403
2
Properties=species:S:1:pos:R:3:forces:R:3 energy=-3.490173138560306 pbc="F F F"
As       0.00000000       0.00000000       0.00000000       0.00000000       0.00000000       0.26793468
As       0.00000000       0.00000000       4.35393939       0.00000000       0.00000000      -0.26793468
2
Properties=species:S:1:pos:R:3:forces:R:3 energy=-3.47462802173418 pbc="F F F"
As       0.00000000       0.00000000       0.00000000       0.00000000       0.00000000       0.26086727
As       0.00000000       0.00000000       4.41272727       0.00000000       0.00000000      -0.26086727
2
Properties=species:S:1:pos:R:3:forces:R:3 energy=-3.4595232394038953 pbc="F F F"
As       0.00000000       0.00000000       0.00000000       0.00000000       0.00000000       0.25267810
As       0.00000000       0.00000000       4.47151515       0.00000000       0.00000000      -0.25267810
2
Properties=species:S:1:pos:R:3:forces:R:3 energy=-3.4449722860932597 pbc="F F F"
As       0.00000000       0.00000000       0.00000000       0.00000000       0.00000000       0.24176684
As       0.00000000       0.00000000       4.53030303       0.00000000       0.00000000      -0.24176684
2
Properties=species:S:1:pos:R:3:forces:R:3 energy=-3.4311763500936063 pbc="F F F"
As       0.00000000       0.00000000       0.00000000       0.00000000       0.00000000       0.22683723
As       0.00000000       0.00000000       4.58909091       0.00000000       0.00000000      -0.22683723
2
Properties=species:S:1:pos:R:3:forces:R:3 energy=-3.4183950038176723 pbc="F F F"
As       0.00000000       0.00000000       0.00000000       0.00000000       0.00000000       0.20719013
As       0.00000000       0.00000000       4.64787879       0.00000000       0.00000000      -0.20719013
2
Properties=species:S:1:pos:R:3:forces:R:3 energy=-3.406907112656096 pbc="F F F"
As       0.00000000       0.00000000       0.00000000       0.00000000       0.00000000       0.18290739
As       0.00000000       0.00000000       4.70666667       0.00000000       0.00000000      -0.18290739
2
Properties=species:S:1:pos:R:3:forces:R:3 energy=-3.396962885916525 pbc="F F F"
As       0.00000000       0.00000000       0.00000000       0.00000000       0.00000000       0.15489717
As       0.00000000       0.00000000       4.76545455       0.00000000       0.00000000      -0.15489717
2
Properties=species:S:1:pos:R:3:forces:R:3 energy=-3.3887374517249604 pbc="F F F"
As       0.00000000       0.00000000       0.00000000       0.00000000       0.00000000       0.12473112
As       0.00000000       0.00000000       4.82424242       0.00000000       0.00000000      -0.12473112
2
Properties=species:S:1:pos:R:3:forces:R:3 energy=-3.3823017747108386 pbc="F F F"
As       0.00000000       0.00000000       0.00000000       0.00000000       0.00000000       0.09436871
As       0.00000000       0.00000000       4.88303030       0.00000000       0.00000000      -0.09436871
2
Properties=species:S:1:pos:R:3:forces:R:3 energy=-3.377606708888717 pbc="F F F"
As       0.00000000       0.00000000       0.00000000       0.00000000       0.00000000       0.06580139
As       0.00000000       0.00000000       4.94181818       0.00000000       0.00000000      -0.06580139
2
Properties=species:S:1:pos:R:3:forces:R:3 energy=-3.374495233033544 pbc="F F F"
As       0.00000000       0.00000000       0.00000000       0.00000000       0.00000000       0.04076147
As       0.00000000       0.00000000       5.00060606       0.00000000       0.00000000      -0.04076147
2
Properties=species:S:1:pos:R:3:forces:R:3 energy=-3.3727203732557762 pbc="F F F"
As       0.00000000       0.00000000       0.00000000       0.00000000       0.00000000       0.02048038
As       0.00000000       0.00000000       5.05939394       0.00000000       0.00000000      -0.02048038
2
Properties=species:S:1:pos:R:3:forces:R:3 energy=-3.3719814663840695 pbc="F F F"
As       0.00000000       0.00000000       0.00000000       0.00000000       0.00000000       0.00556866
As       0.00000000       0.00000000       5.11818182       0.00000000       0.00000000      -0.00556866
2
Properties=species:S:1:pos:R:3:forces:R:3 energy=-3.3719604518583686 pbc="F F F"
As       0.00000000       0.00000000       0.00000000       0.00000000       0.00000000      -0.00399500
As       0.00000000       0.00000000       5.17696970       0.00000000       0.00000000       0.00399500
2
Properties=species:S:1:pos:R:3:forces:R:3 energy=-3.3723574483672563 pbc="F F F"
As       0.00000000       0.00000000       0.00000000       0.00000000       0.00000000      -0.00878784
As       0.00000000       0.00000000       5.23575758       0.00000000       0.00000000       0.00878784
2
Properties=species:S:1:pos:R:3:forces:R:3 energy=-3.3729191589210012 pbc="F F F"
As       0.00000000       0.00000000       0.00000000       0.00000000       0.00000000      -0.00978853
As       0.00000000       0.00000000       5.29454545       0.00000000       0.00000000       0.00978853
2
Properties=species:S:1:pos:R:3:forces:R:3 energy=-3.373457263136236 pbc="F F F"
As       0.00000000       0.00000000       0.00000000       0.00000000       0.00000000      -0.00818154
As       0.00000000       0.00000000       5.35333333       0.00000000       0.00000000       0.00818154
2
Properties=species:S:1:pos:R:3:forces:R:3 energy=-3.373853683827497 pbc="F F F"
As       0.00000000       0.00000000       0.00000000       0.00000000       0.00000000      -0.00515629
As       0.00000000       0.00000000       5.41212121       0.00000000       0.00000000       0.00515629
2
Properties=species:S:1:pos:R:3:forces:R:3 energy=-3.374055867736885 pbc="F F F"
As       0.00000000       0.00000000       0.00000000       0.00000000       0.00000000      -0.00173225
As       0.00000000       0.00000000       5.47090909       0.00000000       0.00000000       0.00173225
2
Properties=species:S:1:pos:R:3:forces:R:3 energy=-3.374064150933285 pbc="F F F"
As       0.00000000       0.00000000       0.00000000       0.00000000       0.00000000       0.00135245
As       0.00000000       0.00000000       5.52969697       0.00000000       0.00000000      -0.00135245
2
Properties=species:S:1:pos:R:3:forces:R:3 energy=-3.373911988285278 pbc="F F F"
As       0.00000000       0.00000000       0.00000000       0.00000000       0.00000000       0.00367882
As       0.00000000       0.00000000       5.58848485       0.00000000       0.00000000      -0.00367882
2
Properties=species:S:1:pos:R:3:forces:R:3 energy=-3.373649075635223 pbc="F F F"
As       0.00000000       0.00000000       0.00000000       0.00000000       0.00000000       0.00511944
As       0.00000000       0.00000000       5.64727273       0.00000000       0.00000000      -0.00511944
2
Properties=species:S:1:pos:R:3:forces:R:3 energy=-3.373325820121438 pbc="F F F"
As       0.00000000       0.00000000       0.00000000       0.00000000       0.00000000       0.00576343
As       0.00000000       0.00000000       5.70606061       0.00000000       0.00000000      -0.00576343
2
Properties=species:S:1:pos:R:3:forces:R:3 energy=-3.372982884210786 pbc="F F F"
As       0.00000000       0.00000000       0.00000000       0.00000000       0.00000000       0.00582407
As       0.00000000       0.00000000       5.76484848       0.00000000       0.00000000      -0.00582407
2
Properties=species:S:1:pos:R:3:forces:R:3 energy=-3.372647632782678 pbc="F F F"
As       0.00000000       0.00000000       0.00000000       0.00000000       0.00000000       0.00554345
As       0.00000000       0.00000000       5.82363636       0.00000000       0.00000000      -0.00554345
2
Properties=species:S:1:pos:R:3:forces:R:3 energy=-3.372333625009669 pbc="F F F"
As       0.00000000       0.00000000       0.00000000       0.00000000       0.00000000       0.00513259
As       0.00000000       0.00000000       5.88242424       0.00000000       0.00000000      -0.00513259
2
Properties=species:S:1:pos:R:3:forces:R:3 energy=-3.3720439831038327 pbc="F F F"
As       0.00000000       0.00000000       0.00000000       0.00000000       0.00000000       0.00473096
As       0.00000000       0.00000000       5.94121212       0.00000000       0.00000000      -0.00473096
2
Properties=species:S:1:pos:R:3:forces:R:3 energy=-3.3717759234576965 pbc="F F F"
As       0.00000000       0.00000000       0.00000000       0.00000000       0.00000000       0.00440468
As       0.00000000       0.00000000       6.00000000       0.00000000       0.00000000      -0.00440468
