2
Properties=species:S:1:pos:R:3:forces:R:3 energy=17029.941581488234 pbc="F F F"
Au       0.00000000       0.00000000       0.00000000       0.00000000       0.00000000 -300727.53125000
Au       0.00000000       0.00000000       0.18000000       0.00000000       0.00000000  300727.53125000
2
Properties=species:S:1:pos:R:3:forces:R:3 energy=6556.394706488235 pbc="F F F"
Au       0.00000000       0.00000000       0.00000000       0.00000000       0.00000000  -98609.13281250
Au       0.00000000       0.00000000       0.23878788       0.00000000       0.00000000   98609.13281250
2
Properties=species:S:1:pos:R:3:forces:R:3 energy=2856.80608344136 pbc="F F F"
Au       0.00000000       0.00000000       0.00000000       0.00000000       0.00000000  -38018.85546875
Au       0.00000000       0.00000000       0.29757576       0.00000000       0.00000000   38018.85546875
2
Properties=species:S:1:pos:R:3:forces:R:3 energy=1362.990043408633 pbc="F F F"
Au       0.00000000       0.00000000       0.00000000       0.00000000       0.00000000  -16211.37988281
Au       0.00000000       0.00000000       0.35636364       0.00000000       0.00000000   16211.37988281
2
Properties=species:S:1:pos:R:3:forces:R:3 energy=704.7833173407499 pbc="F F F"
Au       0.00000000       0.00000000       0.00000000       0.00000000       0.00000000   -7428.86474609
Au       0.00000000       0.00000000       0.41515152       0.00000000       0.00000000    7428.86474609
2
Properties=species:S:1:pos:R:3:forces:R:3 energy=395.3227460643587 pbc="F F F"
Au       0.00000000       0.00000000       0.00000000       0.00000000       0.00000000   -3600.44946289
Au       0.00000000       0.00000000       0.47393939       0.00000000       0.00000000    3600.44946289
2
Properties=species:S:1:pos:R:3:forces:R:3 energy=242.34281139731843 pbc="F F F"
Au       0.00000000       0.00000000       0.00000000       0.00000000       0.00000000   -1819.69738770
Au       0.00000000       0.00000000       0.53272727       0.00000000       0.00000000    1819.69738770
2
Properties=species:S:1:pos:R:3:forces:R:3 energy=164.06829056447668 pbc="F F F"
Au       0.00000000       0.00000000       0.00000000       0.00000000       0.00000000    -941.79382324
Au       0.00000000       0.00000000       0.59151515       0.00000000       0.00000000     941.79382324
2
Properties=species:S:1:pos:R:3:forces:R:3 energy=123.46632377942643 pbc="F F F"
Au       0.00000000       0.00000000       0.00000000       0.00000000       0.00000000    -487.73010254
Au       0.00000000       0.00000000       0.65030303       0.00000000       0.00000000     487.73010254
2
Properties=species:S:1:pos:R:3:forces:R:3 energy=102.56567386905397 pbc="F F F"
Au       0.00000000       0.00000000       0.00000000       0.00000000       0.00000000    -249.37040710
Au       0.00000000       0.00000000       0.70909091       0.00000000       0.00000000     249.37040710
2
Properties=species:S:1:pos:R:3:forces:R:3 energy=91.76950858014342 pbc="F F F"
Au       0.00000000       0.00000000       0.00000000       0.00000000       0.00000000    -133.72814941
Au       0.00000000       0.00000000       0.76787879       0.00000000       0.00000000     133.72814941
2
Properties=species:S:1:pos:R:3:forces:R:3 energy=85.36385392634263 pbc="F F F"
Au       0.00000000       0.00000000       0.00000000       0.00000000       0.00000000     -93.85609436
Au       0.00000000       0.00000000       0.82666667       0.00000000       0.00000000      93.85609436
2
Properties=species:S:1:pos:R:3:forces:R:3 energy=79.92461479185687 pbc="F F F"
Au       0.00000000       0.00000000       0.00000000       0.00000000       0.00000000     -95.36542511
Au       0.00000000       0.00000000       0.88545455       0.00000000       0.00000000      95.36542511
2
Properties=species:S:1:pos:R:3:forces:R:3 energy=73.93013135729015 pbc="F F F"
Au       0.00000000       0.00000000       0.00000000       0.00000000       0.00000000    -108.70932007
Au       0.00000000       0.00000000       0.94424242       0.00000000       0.00000000     108.70932007
2
Properties=species:S:1:pos:R:3:forces:R:3 energy=67.20633903709715 pbc="F F F"
Au       0.00000000       0.00000000       0.00000000       0.00000000       0.00000000    -119.44673920
Au       0.00000000       0.00000000       1.00303030       0.00000000       0.00000000     119.44673920
2
Properties=species:S:1:pos:R:3:forces:R:3 energy=59.93698039882075 pbc="F F F"
Au       0.00000000       0.00000000       0.00000000       0.00000000       0.00000000    -127.31809235
Au       0.00000000       0.00000000       1.06181818       0.00000000       0.00000000     127.31809235
2
Properties=species:S:1:pos:R:3:forces:R:3 energy=52.265552988697515 pbc="F F F"
Au       0.00000000       0.00000000       0.00000000       0.00000000       0.00000000    -134.59791565
Au       0.00000000       0.00000000       1.12060606       0.00000000       0.00000000     134.59791565
2
Properties=species:S:1:pos:R:3:forces:R:3 energy=44.117971637656 pbc="F F F"
Au       0.00000000       0.00000000       0.00000000       0.00000000       0.00000000    -139.90402222
Au       0.00000000       0.00000000       1.17939394       0.00000000       0.00000000     139.90402222
2
Properties=species:S:1:pos:R:3:forces:R:3 energy=36.102947692910114 pbc="F F F"
Au       0.00000000       0.00000000       0.00000000       0.00000000       0.00000000    -131.59449768
Au       0.00000000       0.00000000       1.23818182       0.00000000       0.00000000     131.59449768
2
Properties=species:S:1:pos:R:3:forces:R:3 energy=28.712636337239065 pbc="F F F"
Au       0.00000000       0.00000000       0.00000000       0.00000000       0.00000000    -119.40351105
Au       0.00000000       0.00000000       1.29696970       0.00000000       0.00000000     119.40351105
2
Properties=species:S:1:pos:R:3:forces:R:3 energy=22.1274671559739 pbc="F F F"
Au       0.00000000       0.00000000       0.00000000       0.00000000       0.00000000    -104.03037262
Au       0.00000000       0.00000000       1.35575758       0.00000000       0.00000000     104.03037262
2
Properties=species:S:1:pos:R:3:forces:R:3 energy=16.535935937156403 pbc="F F F"
Au       0.00000000       0.00000000       0.00000000       0.00000000       0.00000000     -85.92042542
Au       0.00000000       0.00000000       1.41454545       0.00000000       0.00000000      85.92042542
2
Properties=species:S:1:pos:R:3:forces:R:3 energy=12.037855365814014 pbc="F F F"
Au       0.00000000       0.00000000       0.00000000       0.00000000       0.00000000     -67.16397858
Au       0.00000000       0.00000000       1.47333333       0.00000000       0.00000000      67.16397858
2
Properties=species:S:1:pos:R:3:forces:R:3 energy=8.610513890842137 pbc="F F F"
Au       0.00000000       0.00000000       0.00000000       0.00000000       0.00000000     -49.86946487
Au       0.00000000       0.00000000       1.53212121       0.00000000       0.00000000      49.86946487
2
Properties=species:S:1:pos:R:3:forces:R:3 energy=6.106237653446424 pbc="F F F"
Au       0.00000000       0.00000000       0.00000000       0.00000000       0.00000000     -36.00436401
Au       0.00000000       0.00000000       1.59090909       0.00000000       0.00000000      36.00436401
2
Properties=species:S:1:pos:R:3:forces:R:3 energy=4.29588567803673 pbc="F F F"
Au       0.00000000       0.00000000       0.00000000       0.00000000       0.00000000     -26.24348450
Au       0.00000000       0.00000000       1.64969697       0.00000000       0.00000000      26.24348450
2
Properties=species:S:1:pos:R:3:forces:R:3 energy=2.952811851719783 pbc="F F F"
Au       0.00000000       0.00000000       0.00000000       0.00000000       0.00000000     -19.92920685
Au       0.00000000       0.00000000       1.70848485       0.00000000       0.00000000      19.92920685
2
Properties=species:S:1:pos:R:3:forces:R:3 energy=1.9076985400421271 pbc="F F F"
Au       0.00000000       0.00000000       0.00000000       0.00000000       0.00000000     -15.91936398
Au       0.00000000       0.00000000       1.76727273       0.00000000       0.00000000      15.91936398
2
Properties=species:S:1:pos:R:3:forces:R:3 energy=1.0551140832679577 pbc="F F F"
Au       0.00000000       0.00000000       0.00000000       0.00000000       0.00000000     -13.24632263
Au       0.00000000       0.00000000       1.82606061       0.00000000       0.00000000      13.24632263
2
Properties=species:S:1:pos:R:3:forces:R:3 energy=0.33674159906008905 pbc="F F F"
Au       0.00000000       0.00000000       0.00000000       0.00000000       0.00000000     -11.27125835
Au       0.00000000       0.00000000       1.88484848       0.00000000       0.00000000      11.27125835
2
Properties=species:S:1:pos:R:3:forces:R:3 energy=-0.2762109613707457 pbc="F F F"
Au       0.00000000       0.00000000       0.00000000       0.00000000       0.00000000      -9.61368752
Au       0.00000000       0.00000000       1.94363636       0.00000000       0.00000000       9.61368752
2
Properties=species:S:1:pos:R:3:forces:R:3 energy=-0.7959809804979626 pbc="F F F"
Au       0.00000000       0.00000000       0.00000000       0.00000000       0.00000000      -8.08236408
Au       0.00000000       0.00000000       2.00242424       0.00000000       0.00000000       8.08236408
2
Properties=species:S:1:pos:R:3:forces:R:3 energy=-1.227850561540873 pbc="F F F"
Au       0.00000000       0.00000000       0.00000000       0.00000000       0.00000000      -6.62220383
Au       0.00000000       0.00000000       2.06121212       0.00000000       0.00000000       6.62220383
2
Properties=species:S:1:pos:R:3:forces:R:3 energy=-1.5763307366913963 pbc="F F F"
Au       0.00000000       0.00000000       0.00000000       0.00000000       0.00000000      -5.25132132
Au       0.00000000       0.00000000       2.12000000       0.00000000       0.00000000       5.25132132
2
Properties=species:S:1:pos:R:3:forces:R:3 energy=-1.8477742881108912 pbc="F F F"
Au       0.00000000       0.00000000       0.00000000       0.00000000       0.00000000      -4.00734949
Au       0.00000000       0.00000000       2.17878788       0.00000000       0.00000000       4.00734949
2
Properties=species:S:1:pos:R:3:forces:R:3 energy=-2.050557070887259 pbc="F F F"
Au       0.00000000       0.00000000       0.00000000       0.00000000       0.00000000      -2.91876316
Au       0.00000000       0.00000000       2.23757576       0.00000000       0.00000000       2.91876316
2
Properties=species:S:1:pos:R:3:forces:R:3 energy=-2.1941861792454405 pbc="F F F"
Au       0.00000000       0.00000000       0.00000000       0.00000000       0.00000000      -1.99472201
Au       0.00000000       0.00000000       2.29636364       0.00000000       0.00000000       1.99472201
2
Properties=species:S:1:pos:R:3:forces:R:3 energy=-2.2881264483012047 pbc="F F F"
Au       0.00000000       0.00000000       0.00000000       0.00000000       0.00000000      -1.22540855
Au       0.00000000       0.00000000       2.35515152       0.00000000       0.00000000       1.22540855
2
Properties=species:S:1:pos:R:3:forces:R:3 energy=-2.3408953612820365 pbc="F F F"
Au       0.00000000       0.00000000       0.00000000       0.00000000       0.00000000      -0.59029049
Au       0.00000000       0.00000000       2.41393939       0.00000000       0.00000000       0.59029049
2
Properties=species:S:1:pos:R:3:forces:R:3 energy=-2.359748880364143 pbc="F F F"
Au       0.00000000       0.00000000       0.00000000       0.00000000       0.00000000      -0.06860642
Au       0.00000000       0.00000000       2.47272727       0.00000000       0.00000000       0.06860642
2
Properties=species:S:1:pos:R:3:forces:R:3 energy=-2.350884387568686 pbc="F F F"
Au       0.00000000       0.00000000       0.00000000       0.00000000       0.00000000       0.35470214
Au       0.00000000       0.00000000       2.53151515       0.00000000       0.00000000      -0.35470214
2
Properties=species:S:1:pos:R:3:forces:R:3 energy=-2.319772765332587 pbc="F F F"
Au       0.00000000       0.00000000       0.00000000       0.00000000       0.00000000       0.68981087
Au       0.00000000       0.00000000       2.59030303       0.00000000       0.00000000      -0.68981087
2
Properties=species:S:1:pos:R:3:forces:R:3 energy=-2.2713235000467575 pbc="F F F"
Au       0.00000000       0.00000000       0.00000000       0.00000000       0.00000000       0.94625032
Au       0.00000000       0.00000000       2.64909091       0.00000000       0.00000000      -0.94625032
2
Properties=species:S:1:pos:R:3:forces:R:3 energy=-2.2098304149991206 pbc="F F F"
Au       0.00000000       0.00000000       0.00000000       0.00000000       0.00000000       1.13571787
Au       0.00000000       0.00000000       2.70787879       0.00000000       0.00000000      -1.13571787
2
Properties=species:S:1:pos:R:3:forces:R:3 energy=-2.1388448217075147 pbc="F F F"
Au       0.00000000       0.00000000       0.00000000       0.00000000       0.00000000       1.27129090
Au       0.00000000       0.00000000       2.76666667       0.00000000       0.00000000      -1.27129090
2
Properties=species:S:1:pos:R:3:forces:R:3 energy=-2.0611873451745852 pbc="F F F"
Au       0.00000000       0.00000000       0.00000000       0.00000000       0.00000000       1.36427939
Au       0.00000000       0.00000000       2.82545455       0.00000000       0.00000000      -1.36427939
2
Properties=species:S:1:pos:R:3:forces:R:3 energy=-1.9791349240812701 pbc="F F F"
Au       0.00000000       0.00000000       0.00000000       0.00000000       0.00000000       1.42155361
Au       0.00000000       0.00000000       2.88424242       0.00000000       0.00000000      -1.42155361
2
Properties=species:S:1:pos:R:3:forces:R:3 energy=-1.8946996611994216 pbc="F F F"
Au       0.00000000       0.00000000       0.00000000       0.00000000       0.00000000       1.44549978
Au       0.00000000       0.00000000       2.94303030       0.00000000       0.00000000      -1.44549978
2
Properties=species:S:1:pos:R:3:forces:R:3 energy=-1.8098283619455482 pbc="F F F"
Au       0.00000000       0.00000000       0.00000000       0.00000000       0.00000000       1.43636775
Au       0.00000000       0.00000000       3.00181818       0.00000000       0.00000000      -1.43636775
2
Properties=species:S:1:pos:R:3:forces:R:3 energy=-1.726458893733569 pbc="F F F"
Au       0.00000000       0.00000000       0.00000000       0.00000000       0.00000000       1.39458513
Au       0.00000000       0.00000000       3.06060606       0.00000000       0.00000000      -1.39458513
2
Properties=species:S:1:pos:R:3:forces:R:3 energy=-1.6464600590640766 pbc="F F F"
Au       0.00000000       0.00000000       0.00000000       0.00000000       0.00000000       1.32227397
Au       0.00000000       0.00000000       3.11939394       0.00000000       0.00000000      -1.32227397
2
Properties=species:S:1:pos:R:3:forces:R:3 energy=-1.571485660484914 pbc="F F F"
Au       0.00000000       0.00000000       0.00000000       0.00000000       0.00000000       1.22482264
Au       0.00000000       0.00000000       3.17818182       0.00000000       0.00000000      -1.22482264
2
Properties=species:S:1:pos:R:3:forces:R:3 energy=-1.5027739893491963 pbc="F F F"
Au       0.00000000       0.00000000       0.00000000       0.00000000       0.00000000       1.11089528
Au       0.00000000       0.00000000       3.23696970       0.00000000       0.00000000      -1.11089528
2
Properties=species:S:1:pos:R:3:forces:R:3 energy=-1.4409968679074558 pbc="F F F"
Au       0.00000000       0.00000000       0.00000000       0.00000000       0.00000000       0.99057341
Au       0.00000000       0.00000000       3.29575758       0.00000000       0.00000000      -0.99057341
2
Properties=species:S:1:pos:R:3:forces:R:3 energy=-1.3862433391668365 pbc="F F F"
Au       0.00000000       0.00000000       0.00000000       0.00000000       0.00000000       0.87343693
Au       0.00000000       0.00000000       3.35454545       0.00000000       0.00000000      -0.87343693
2
Properties=species:S:1:pos:R:3:forces:R:3 energy=-1.33808031405272 pbc="F F F"
Au       0.00000000       0.00000000       0.00000000       0.00000000       0.00000000       0.76754344
Au       0.00000000       0.00000000       3.41333333       0.00000000       0.00000000      -0.76754344
2
Properties=species:S:1:pos:R:3:forces:R:3 energy=-1.2956568890568847 pbc="F F F"
Au       0.00000000       0.00000000       0.00000000       0.00000000       0.00000000       0.67905498
Au       0.00000000       0.00000000       3.47212121       0.00000000       0.00000000      -0.67905498
2
Properties=species:S:1:pos:R:3:forces:R:3 energy=-1.2578175879113505 pbc="F F F"
Au       0.00000000       0.00000000       0.00000000       0.00000000       0.00000000       0.61205238
Au       0.00000000       0.00000000       3.53090909       0.00000000       0.00000000      -0.61205238
2
Properties=species:S:1:pos:R:3:forces:R:3 energy=-1.2232371826393869 pbc="F F F"
Au       0.00000000       0.00000000       0.00000000       0.00000000       0.00000000       0.56824100
Au       0.00000000       0.00000000       3.58969697       0.00000000       0.00000000      -0.56824100
2
Properties=species:S:1:pos:R:3:forces:R:3 energy=-1.1905681742937697 pbc="F F F"
Au       0.00000000       0.00000000       0.00000000       0.00000000       0.00000000       0.54667819
Au       0.00000000       0.00000000       3.64848485       0.00000000       0.00000000      -0.54667819
2
Properties=species:S:1:pos:R:3:forces:R:3 energy=-1.158594099943035 pbc="F F F"
Au       0.00000000       0.00000000       0.00000000       0.00000000       0.00000000       0.54378372
Au       0.00000000       0.00000000       3.70727273       0.00000000       0.00000000      -0.54378372
2
Properties=species:S:1:pos:R:3:forces:R:3 energy=-1.1263762848106413 pbc="F F F"
Au       0.00000000       0.00000000       0.00000000       0.00000000       0.00000000       0.55390710
Au       0.00000000       0.00000000       3.76606061       0.00000000       0.00000000      -0.55390710
2
Properties=species:S:1:pos:R:3:forces:R:3 energy=-1.0933440175189282 pbc="F F F"
Au       0.00000000       0.00000000       0.00000000       0.00000000       0.00000000       0.57036668
Au       0.00000000       0.00000000       3.82484848       0.00000000       0.00000000      -0.57036668
2
Properties=species:S:1:pos:R:3:forces:R:3 energy=-1.0593186873864053 pbc="F F F"
Au       0.00000000       0.00000000       0.00000000       0.00000000       0.00000000       0.58667731
Au       0.00000000       0.00000000       3.88363636       0.00000000       0.00000000      -0.58667731
2
Properties=species:S:1:pos:R:3:forces:R:3 energy=-1.0244719589741824 pbc="F F F"
Au       0.00000000       0.00000000       0.00000000       0.00000000       0.00000000       0.59759784
Au       0.00000000       0.00000000       3.94242424       0.00000000       0.00000000      -0.59759784
2
Properties=species:S:1:pos:R:3:forces:R:3 energy=-0.9892296050353451 pbc="F F F"
Au       0.00000000       0.00000000       0.00000000       0.00000000       0.00000000       0.59973735
Au       0.00000000       0.00000000       4.00121212       0.00000000       0.00000000      -0.59973735
2
Properties=species:S:1:pos:R:3:forces:R:3 energy=-0.9541588842465993 pbc="F F F"
Au       0.00000000       0.00000000       0.00000000       0.00000000       0.00000000       0.59166157
Au       0.00000000       0.00000000       4.06000000       0.00000000       0.00000000      -0.59166157
2
Properties=species:S:1:pos:R:3:forces:R:3 energy=-0.9198607771784694 pbc="F F F"
Au       0.00000000       0.00000000       0.00000000       0.00000000       0.00000000       0.57360721
Au       0.00000000       0.00000000       4.11878788       0.00000000       0.00000000      -0.57360721
2
Properties=species:S:1:pos:R:3:forces:R:3 energy=-0.8868845932621613 pbc="F F F"
Au       0.00000000       0.00000000       0.00000000       0.00000000       0.00000000       0.54699665
Au       0.00000000       0.00000000       4.17757576       0.00000000       0.00000000      -0.54699665
2
Properties=species:S:1:pos:R:3:forces:R:3 energy=-0.8556738814503289 pbc="F F F"
Au       0.00000000       0.00000000       0.00000000       0.00000000       0.00000000       0.51390821
Au       0.00000000       0.00000000       4.23636364       0.00000000       0.00000000      -0.51390821
2
Properties=species:S:1:pos:R:3:forces:R:3 energy=-0.8265433994814828 pbc="F F F"
Au       0.00000000       0.00000000       0.00000000       0.00000000       0.00000000       0.47660938
Au       0.00000000       0.00000000       4.29515152       0.00000000       0.00000000      -0.47660938
2
Properties=species:S:1:pos:R:3:forces:R:3 energy=-0.799677589501804 pbc="F F F"
Au       0.00000000       0.00000000       0.00000000       0.00000000       0.00000000       0.43721339
Au       0.00000000       0.00000000       4.35393939       0.00000000       0.00000000      -0.43721339
2
Properties=species:S:1:pos:R:3:forces:R:3 energy=-0.7751448687566729 pbc="F F F"
Au       0.00000000       0.00000000       0.00000000       0.00000000       0.00000000       0.39745736
Au       0.00000000       0.00000000       4.41272727       0.00000000       0.00000000      -0.39745736
2
Properties=species:S:1:pos:R:3:forces:R:3 energy=-0.7529273358784576 pbc="F F F"
Au       0.00000000       0.00000000       0.00000000       0.00000000       0.00000000       0.35862920
Au       0.00000000       0.00000000       4.47151515       0.00000000       0.00000000      -0.35862920
2
Properties=species:S:1:pos:R:3:forces:R:3 energy=-0.7329426325358819 pbc="F F F"
Au       0.00000000       0.00000000       0.00000000       0.00000000       0.00000000       0.32161078
Au       0.00000000       0.00000000       4.53030303       0.00000000       0.00000000      -0.32161078
2
Properties=species:S:1:pos:R:3:forces:R:3 energy=-0.7150665060839305 pbc="F F F"
Au       0.00000000       0.00000000       0.00000000       0.00000000       0.00000000       0.28700227
Au       0.00000000       0.00000000       4.58909091       0.00000000       0.00000000      -0.28700227
2
Properties=species:S:1:pos:R:3:forces:R:3 energy=-0.6991426637531298 pbc="F F F"
Au       0.00000000       0.00000000       0.00000000       0.00000000       0.00000000       0.25525141
Au       0.00000000       0.00000000       4.64787879       0.00000000       0.00000000      -0.25525141
2
Properties=species:S:1:pos:R:3:forces:R:3 energy=-0.6849919375096426 pbc="F F F"
Au       0.00000000       0.00000000       0.00000000       0.00000000       0.00000000       0.22670931
Au       0.00000000       0.00000000       4.70666667       0.00000000       0.00000000      -0.22670931
2
Properties=species:S:1:pos:R:3:forces:R:3 energy=-0.6724189386006634 pbc="F F F"
Au       0.00000000       0.00000000       0.00000000       0.00000000       0.00000000       0.20163029
Au       0.00000000       0.00000000       4.76545455       0.00000000       0.00000000      -0.20163029
2
Properties=species:S:1:pos:R:3:forces:R:3 energy=-0.6612157920561952 pbc="F F F"
Au       0.00000000       0.00000000       0.00000000       0.00000000       0.00000000       0.18007551
Au       0.00000000       0.00000000       4.82424242       0.00000000       0.00000000      -0.18007551
2
Properties=species:S:1:pos:R:3:forces:R:3 energy=-0.6511813810697568 pbc="F F F"
Au       0.00000000       0.00000000       0.00000000       0.00000000       0.00000000       0.16185226
Au       0.00000000       0.00000000       4.88303030       0.00000000       0.00000000      -0.16185226
2
Properties=species:S:1:pos:R:3:forces:R:3 energy=-0.6421299484901869 pbc="F F F"
Au       0.00000000       0.00000000       0.00000000       0.00000000       0.00000000       0.14649245
Au       0.00000000       0.00000000       4.94181818       0.00000000       0.00000000      -0.14649245
2
Properties=species:S:1:pos:R:3:forces:R:3 energy=-0.6339134644025461 pbc="F F F"
Au       0.00000000       0.00000000       0.00000000       0.00000000       0.00000000       0.13333191
Au       0.00000000       0.00000000       5.00060606       0.00000000       0.00000000      -0.13333191
2
Properties=species:S:1:pos:R:3:forces:R:3 energy=-0.6264248295237997 pbc="F F F"
Au       0.00000000       0.00000000       0.00000000       0.00000000       0.00000000       0.12161411
Au       0.00000000       0.00000000       5.05939394       0.00000000       0.00000000      -0.12161411
2
Properties=species:S:1:pos:R:3:forces:R:3 energy=-0.6196001211723865 pbc="F F F"
Au       0.00000000       0.00000000       0.00000000       0.00000000       0.00000000       0.11063460
Au       0.00000000       0.00000000       5.11818182       0.00000000       0.00000000      -0.11063460
2
Properties=species:S:1:pos:R:3:forces:R:3 energy=-0.6134134425101664 pbc="F F F"
Au       0.00000000       0.00000000       0.00000000       0.00000000       0.00000000       0.09985432
Au       0.00000000       0.00000000       5.17696970       0.00000000       0.00000000      -0.09985432
2
Properties=species:S:1:pos:R:3:forces:R:3 energy=-0.6078626570254523 pbc="F F F"
Au       0.00000000       0.00000000       0.00000000       0.00000000       0.00000000       0.08896539
Au       0.00000000       0.00000000       5.23575758       0.00000000       0.00000000      -0.08896539
2
Properties=species:S:1:pos:R:3:forces:R:3 energy=-0.6029568578863824 pbc="F F F"
Au       0.00000000       0.00000000       0.00000000       0.00000000       0.00000000       0.07791902
Au       0.00000000       0.00000000       5.29454545       0.00000000       0.00000000      -0.07791902
2
Properties=species:S:1:pos:R:3:forces:R:3 energy=-0.5987008873643458 pbc="F F F"
Au       0.00000000       0.00000000       0.00000000       0.00000000       0.00000000       0.06688703
Au       0.00000000       0.00000000       5.35333333       0.00000000       0.00000000      -0.06688703
2
Properties=species:S:1:pos:R:3:forces:R:3 energy=-0.5950857117677941 pbc="F F F"
Au       0.00000000       0.00000000       0.00000000       0.00000000       0.00000000       0.05618560
Au       0.00000000       0.00000000       5.41212121       0.00000000       0.00000000      -0.05618560
2
Properties=species:S:1:pos:R:3:forces:R:3 energy=-0.5920810906549109 pbc="F F F"
Au       0.00000000       0.00000000       0.00000000       0.00000000       0.00000000       0.04618236
Au       0.00000000       0.00000000       5.47090909       0.00000000       0.00000000      -0.04618236
2
Properties=species:S:1:pos:R:3:forces:R:3 energy=-0.5896357007946335 pbc="F F F"
Au       0.00000000       0.00000000       0.00000000       0.00000000       0.00000000       0.03719621
Au       0.00000000       0.00000000       5.52969697       0.00000000       0.00000000      -0.03719621
2
Properties=species:S:1:pos:R:3:forces:R:3 energy=-0.5876836075223778 pbc="F F F"
Au       0.00000000       0.00000000       0.00000000       0.00000000       0.00000000       0.02943162
Au       0.00000000       0.00000000       5.58848485       0.00000000       0.00000000      -0.02943162
2
Properties=species:S:1:pos:R:3:forces:R:3 energy=-0.5861499238054897 pbc="F F F"
Au       0.00000000       0.00000000       0.00000000       0.00000000       0.00000000       0.02295960
Au       0.00000000       0.00000000       5.64727273       0.00000000       0.00000000      -0.02295960
2
Properties=species:S:1:pos:R:3:forces:R:3 energy=-0.5849600911448083 pbc="F F F"
Au       0.00000000       0.00000000       0.00000000       0.00000000       0.00000000       0.01772533
Au       0.00000000       0.00000000       5.70606061       0.00000000       0.00000000      -0.01772533
2
Properties=species:S:1:pos:R:3:forces:R:3 energy=-0.5840434962430849 pbc="F F F"
Au       0.00000000       0.00000000       0.00000000       0.00000000       0.00000000       0.01359975
Au       0.00000000       0.00000000       5.76484848       0.00000000       0.00000000      -0.01359975
2
Properties=species:S:1:pos:R:3:forces:R:3 energy=-0.5833418004001171 pbc="F F F"
Au       0.00000000       0.00000000       0.00000000       0.00000000       0.00000000       0.01043780
Au       0.00000000       0.00000000       5.82363636       0.00000000       0.00000000      -0.01043780
2
Properties=species:S:1:pos:R:3:forces:R:3 energy=-0.5828006744739923 pbc="F F F"
Au       0.00000000       0.00000000       0.00000000       0.00000000       0.00000000       0.00811751
Au       0.00000000       0.00000000       5.88242424       0.00000000       0.00000000      -0.00811751
2
Properties=species:S:1:pos:R:3:forces:R:3 energy=-0.5823720592938547 pbc="F F F"
Au       0.00000000       0.00000000       0.00000000       0.00000000       0.00000000       0.00658109
Au       0.00000000       0.00000000       5.94121212       0.00000000       0.00000000      -0.00658109
2
Properties=species:S:1:pos:R:3:forces:R:3 energy=-0.5820113709732232 pbc="F F F"
Au       0.00000000       0.00000000       0.00000000       0.00000000       0.00000000       0.00582827
Au       0.00000000       0.00000000       6.00000000       0.00000000       0.00000000      -0.00582827
