2
Properties=species:S:1:pos:R:3:forces:R:3 energy=201.10701310056967 pbc="F F F"
Be       0.00000000       0.00000000       0.00000000       0.00000000       0.00000000   -2491.41162109
Be       0.00000000       0.00000000       0.18000000       0.00000000       0.00000000    2491.41162109
2
Properties=species:S:1:pos:R:3:forces:R:3 energy=103.83199631590169 pbc="F F F"
Be       0.00000000       0.00000000       0.00000000       0.00000000       0.00000000   -1063.46508789
Be       0.00000000       0.00000000       0.23878788       0.00000000       0.00000000    1063.46508789
2
Properties=species:S:1:pos:R:3:forces:R:3 energy=59.650679943337096 pbc="F F F"
Be       0.00000000       0.00000000       0.00000000       0.00000000       0.00000000    -517.51629639
Be       0.00000000       0.00000000       0.29757576       0.00000000       0.00000000     517.51629639
2
Properties=species:S:1:pos:R:3:forces:R:3 energy=37.26901186202025 pbc="F F F"
Be       0.00000000       0.00000000       0.00000000       0.00000000       0.00000000    -273.76065063
Be       0.00000000       0.00000000       0.35636364       0.00000000       0.00000000     273.76065063
2
Properties=species:S:1:pos:R:3:forces:R:3 energy=25.129571350863806 pbc="F F F"
Be       0.00000000       0.00000000       0.00000000       0.00000000       0.00000000    -152.31881714
Be       0.00000000       0.00000000       0.41515152       0.00000000       0.00000000     152.31881714
2
Properties=species:S:1:pos:R:3:forces:R:3 energy=18.27186913996429 pbc="F F F"
Be       0.00000000       0.00000000       0.00000000       0.00000000       0.00000000     -87.56081390
Be       0.00000000       0.00000000       0.47393939       0.00000000       0.00000000      87.56081390
2
Properties=species:S:1:pos:R:3:forces:R:3 energy=14.250134034150275 pbc="F F F"
Be       0.00000000       0.00000000       0.00000000       0.00000000       0.00000000     -53.05532837
Be       0.00000000       0.00000000       0.53272727       0.00000000       0.00000000      53.05532837
2
Properties=species:S:1:pos:R:3:forces:R:3 energy=11.67807932006184 pbc="F F F"
Be       0.00000000       0.00000000       0.00000000       0.00000000       0.00000000     -36.86064911
Be       0.00000000       0.00000000       0.59151515       0.00000000       0.00000000      36.86064911
2
Properties=species:S:1:pos:R:3:forces:R:3 energy=9.694913819849528 pbc="F F F"
Be       0.00000000       0.00000000       0.00000000       0.00000000       0.00000000     -31.94552994
Be       0.00000000       0.00000000       0.65030303       0.00000000       0.00000000      31.94552994
2
Properties=species:S:1:pos:R:3:forces:R:3 energy=7.8298433864690935 pbc="F F F"
Be       0.00000000       0.00000000       0.00000000       0.00000000       0.00000000     -31.75993919
Be       0.00000000       0.00000000       0.70909091       0.00000000       0.00000000      31.75993919
2
Properties=species:S:1:pos:R:3:forces:R:3 energy=5.98271033287376 pbc="F F F"
Be       0.00000000       0.00000000       0.00000000       0.00000000       0.00000000     -30.56683350
Be       0.00000000       0.00000000       0.76787879       0.00000000       0.00000000      30.56683350
2
Properties=species:S:1:pos:R:3:forces:R:3 energy=4.307887913540036 pbc="F F F"
Be       0.00000000       0.00000000       0.00000000       0.00000000       0.00000000     -25.82847977
Be       0.00000000       0.00000000       0.82666667       0.00000000       0.00000000      25.82847977
2
Properties=species:S:1:pos:R:3:forces:R:3 energy=3.001017019550366 pbc="F F F"
Be       0.00000000       0.00000000       0.00000000       0.00000000       0.00000000     -18.29012299
Be       0.00000000       0.00000000       0.88545455       0.00000000       0.00000000      18.29012299
2
Properties=species:S:1:pos:R:3:forces:R:3 energy=2.1759076016075034 pbc="F F F"
Be       0.00000000       0.00000000       0.00000000       0.00000000       0.00000000      -9.90878487
Be       0.00000000       0.00000000       0.94424242       0.00000000       0.00000000       9.90878487
2
Properties=species:S:1:pos:R:3:forces:R:3 energy=1.7773684077643368 pbc="F F F"
Be       0.00000000       0.00000000       0.00000000       0.00000000       0.00000000      -4.35280371
Be       0.00000000       0.00000000       1.00303030       0.00000000       0.00000000       4.35280371
2
Properties=species:S:1:pos:R:3:forces:R:3 energy=1.597114770033456 pbc="F F F"
Be       0.00000000       0.00000000       0.00000000       0.00000000       0.00000000      -2.19159961
Be       0.00000000       0.00000000       1.06181818       0.00000000       0.00000000       2.19159961
2
Properties=species:S:1:pos:R:3:forces:R:3 energy=1.481290755073703 pbc="F F F"
Be       0.00000000       0.00000000       0.00000000       0.00000000       0.00000000      -1.99483621
Be       0.00000000       0.00000000       1.12060606       0.00000000       0.00000000       1.99483621
2
Properties=species:S:1:pos:R:3:forces:R:3 energy=1.3427130247749974 pbc="F F F"
Be       0.00000000       0.00000000       0.00000000       0.00000000       0.00000000      -2.82988834
Be       0.00000000       0.00000000       1.17939394       0.00000000       0.00000000       2.82988834
2
Properties=species:S:1:pos:R:3:forces:R:3 energy=1.140282702039757 pbc="F F F"
Be       0.00000000       0.00000000       0.00000000       0.00000000       0.00000000      -4.08408356
Be       0.00000000       0.00000000       1.23818182       0.00000000       0.00000000       4.08408356
2
Properties=species:S:1:pos:R:3:forces:R:3 energy=0.866153020868914 pbc="F F F"
Be       0.00000000       0.00000000       0.00000000       0.00000000       0.00000000      -5.15023804
Be       0.00000000       0.00000000       1.29696970       0.00000000       0.00000000       5.15023804
2
Properties=species:S:1:pos:R:3:forces:R:3 energy=0.5503461391713942 pbc="F F F"
Be       0.00000000       0.00000000       0.00000000       0.00000000       0.00000000      -5.44584990
Be       0.00000000       0.00000000       1.35575758       0.00000000       0.00000000       5.44584990
2
Properties=species:S:1:pos:R:3:forces:R:3 energy=0.24060576634646266 pbc="F F F"
Be       0.00000000       0.00000000       0.00000000       0.00000000       0.00000000      -5.00342512
Be       0.00000000       0.00000000       1.41454545       0.00000000       0.00000000       5.00342512
2
Properties=species:S:1:pos:R:3:forces:R:3 energy=-0.032183774296373896 pbc="F F F"
Be       0.00000000       0.00000000       0.00000000       0.00000000       0.00000000      -4.25946331
Be       0.00000000       0.00000000       1.47333333       0.00000000       0.00000000       4.25946331
2
Properties=species:S:1:pos:R:3:forces:R:3 energy=-0.2600080019418018 pbc="F F F"
Be       0.00000000       0.00000000       0.00000000       0.00000000       0.00000000      -3.49734616
Be       0.00000000       0.00000000       1.53212121       0.00000000       0.00000000       3.49734616
2
Properties=species:S:1:pos:R:3:forces:R:3 energy=-0.4442963361388152 pbc="F F F"
Be       0.00000000       0.00000000       0.00000000       0.00000000       0.00000000      -2.78110886
Be       0.00000000       0.00000000       1.59090909       0.00000000       0.00000000       2.78110886
2
Properties=species:S:1:pos:R:3:forces:R:3 energy=-0.5883269707104695 pbc="F F F"
Be       0.00000000       0.00000000       0.00000000       0.00000000       0.00000000      -2.13325024
Be       0.00000000       0.00000000       1.64969697       0.00000000       0.00000000       2.13325024
2
Properties=species:S:1:pos:R:3:forces:R:3 energy=-0.6970889343417013 pbc="F F F"
Be       0.00000000       0.00000000       0.00000000       0.00000000       0.00000000      -1.58507395
Be       0.00000000       0.00000000       1.70848485       0.00000000       0.00000000       1.58507395
2
Properties=species:S:1:pos:R:3:forces:R:3 energy=-0.7768210022316558 pbc="F F F"
Be       0.00000000       0.00000000       0.00000000       0.00000000       0.00000000      -1.14481056
Be       0.00000000       0.00000000       1.76727273       0.00000000       0.00000000       1.14481056
2
Properties=species:S:1:pos:R:3:forces:R:3 energy=-0.8336003484323831 pbc="F F F"
Be       0.00000000       0.00000000       0.00000000       0.00000000       0.00000000      -0.80196893
Be       0.00000000       0.00000000       1.82606061       0.00000000       0.00000000       0.80196893
2
Properties=species:S:1:pos:R:3:forces:R:3 energy=-0.8727508225778493 pbc="F F F"
Be       0.00000000       0.00000000       0.00000000       0.00000000       0.00000000      -0.54265243
Be       0.00000000       0.00000000       1.88484848       0.00000000       0.00000000       0.54265243
2
Properties=species:S:1:pos:R:3:forces:R:3 energy=-0.8987362435706999 pbc="F F F"
Be       0.00000000       0.00000000       0.00000000       0.00000000       0.00000000      -0.35119322
Be       0.00000000       0.00000000       1.94363636       0.00000000       0.00000000       0.35119322
2
Properties=species:S:1:pos:R:3:forces:R:3 energy=-0.9150115879672416 pbc="F F F"
Be       0.00000000       0.00000000       0.00000000       0.00000000       0.00000000      -0.20940019
Be       0.00000000       0.00000000       2.00242424       0.00000000       0.00000000       0.20940019
2
Properties=species:S:1:pos:R:3:forces:R:3 energy=-0.924020487926498 pbc="F F F"
Be       0.00000000       0.00000000       0.00000000       0.00000000       0.00000000      -0.10155177
Be       0.00000000       0.00000000       2.06121212       0.00000000       0.00000000       0.10155177
2
Properties=species:S:1:pos:R:3:forces:R:3 energy=-0.9273479755084071 pbc="F F F"
Be       0.00000000       0.00000000       0.00000000       0.00000000       0.00000000      -0.01397484
Be       0.00000000       0.00000000       2.12000000       0.00000000       0.00000000       0.01397484
2
Properties=species:S:1:pos:R:3:forces:R:3 energy=-0.9258241376240838 pbc="F F F"
Be       0.00000000       0.00000000       0.00000000       0.00000000       0.00000000       0.06531600
Be       0.00000000       0.00000000       2.17878788       0.00000000       0.00000000      -0.06531600
2
Properties=species:S:1:pos:R:3:forces:R:3 energy=-0.9196490151125659 pbc="F F F"
Be       0.00000000       0.00000000       0.00000000       0.00000000       0.00000000       0.14542937
Be       0.00000000       0.00000000       2.23757576       0.00000000       0.00000000      -0.14542937
2
Properties=species:S:1:pos:R:3:forces:R:3 energy=-0.9086346374530538 pbc="F F F"
Be       0.00000000       0.00000000       0.00000000       0.00000000       0.00000000       0.22989540
Be       0.00000000       0.00000000       2.29636364       0.00000000       0.00000000      -0.22989540
2
Properties=species:S:1:pos:R:3:forces:R:3 energy=-0.892617465891172 pbc="F F F"
Be       0.00000000       0.00000000       0.00000000       0.00000000       0.00000000       0.31420419
Be       0.00000000       0.00000000       2.35515152       0.00000000       0.00000000      -0.31420419
2
Properties=species:S:1:pos:R:3:forces:R:3 energy=-0.871889515929578 pbc="F F F"
Be       0.00000000       0.00000000       0.00000000       0.00000000       0.00000000       0.38871330
Be       0.00000000       0.00000000       2.41393939       0.00000000       0.00000000      -0.38871330
2
Properties=species:S:1:pos:R:3:forces:R:3 energy=-0.8471257810577525 pbc="F F F"
Be       0.00000000       0.00000000       0.00000000       0.00000000       0.00000000       0.45323658
Be       0.00000000       0.00000000       2.47272727       0.00000000       0.00000000      -0.45323658
2
Properties=species:S:1:pos:R:3:forces:R:3 energy=-0.8184658567138563 pbc="F F F"
Be       0.00000000       0.00000000       0.00000000       0.00000000       0.00000000       0.52389574
Be       0.00000000       0.00000000       2.53151515       0.00000000       0.00000000      -0.52389574
2
Properties=species:S:1:pos:R:3:forces:R:3 energy=-0.7853903850570382 pbc="F F F"
Be       0.00000000       0.00000000       0.00000000       0.00000000       0.00000000       0.60063094
Be       0.00000000       0.00000000       2.59030303       0.00000000       0.00000000      -0.60063094
2
Properties=species:S:1:pos:R:3:forces:R:3 energy=-0.7481682013984314 pbc="F F F"
Be       0.00000000       0.00000000       0.00000000       0.00000000       0.00000000       0.66161102
Be       0.00000000       0.00000000       2.64909091       0.00000000       0.00000000      -0.66161102
2
Properties=species:S:1:pos:R:3:forces:R:3 energy=-0.7081016461460228 pbc="F F F"
Be       0.00000000       0.00000000       0.00000000       0.00000000       0.00000000       0.69753182
Be       0.00000000       0.00000000       2.70787879       0.00000000       0.00000000      -0.69753182
2
Properties=species:S:1:pos:R:3:forces:R:3 energy=-0.6665423747352281 pbc="F F F"
Be       0.00000000       0.00000000       0.00000000       0.00000000       0.00000000       0.71371740
Be       0.00000000       0.00000000       2.76666667       0.00000000       0.00000000      -0.71371740
2
Properties=species:S:1:pos:R:3:forces:R:3 energy=-0.6244307454958345 pbc="F F F"
Be       0.00000000       0.00000000       0.00000000       0.00000000       0.00000000       0.71726060
Be       0.00000000       0.00000000       2.82545455       0.00000000       0.00000000      -0.71726060
2
Properties=species:S:1:pos:R:3:forces:R:3 energy=-0.5823765235966345 pbc="F F F"
Be       0.00000000       0.00000000       0.00000000       0.00000000       0.00000000       0.71223485
Be       0.00000000       0.00000000       2.88424242       0.00000000       0.00000000      -0.71223485
2
Properties=species:S:1:pos:R:3:forces:R:3 energy=-0.5408256815973341 pbc="F F F"
Be       0.00000000       0.00000000       0.00000000       0.00000000       0.00000000       0.70025343
Be       0.00000000       0.00000000       2.94303030       0.00000000       0.00000000      -0.70025343
2
Properties=species:S:1:pos:R:3:forces:R:3 energy=-0.500167069431873 pbc="F F F"
Be       0.00000000       0.00000000       0.00000000       0.00000000       0.00000000       0.68196625
Be       0.00000000       0.00000000       3.00181818       0.00000000       0.00000000      -0.68196625
2
Properties=species:S:1:pos:R:3:forces:R:3 energy=-0.4607535037097809 pbc="F F F"
Be       0.00000000       0.00000000       0.00000000       0.00000000       0.00000000       0.65804201
Be       0.00000000       0.00000000       3.06060606       0.00000000       0.00000000      -0.65804201
2
Properties=species:S:1:pos:R:3:forces:R:3 energy=-0.42288833202684345 pbc="F F F"
Be       0.00000000       0.00000000       0.00000000       0.00000000       0.00000000       0.62950325
Be       0.00000000       0.00000000       3.11939394       0.00000000       0.00000000      -0.62950325
2
Properties=species:S:1:pos:R:3:forces:R:3 energy=-0.38680358233630985 pbc="F F F"
Be       0.00000000       0.00000000       0.00000000       0.00000000       0.00000000       0.59767359
Be       0.00000000       0.00000000       3.17818182       0.00000000       0.00000000      -0.59767359
2
Properties=species:S:1:pos:R:3:forces:R:3 energy=-0.35265259572022994 pbc="F F F"
Be       0.00000000       0.00000000       0.00000000       0.00000000       0.00000000       0.56397641
Be       0.00000000       0.00000000       3.23696970       0.00000000       0.00000000      -0.56397641
2
Properties=species:S:1:pos:R:3:forces:R:3 energy=-0.3205049441718717 pbc="F F F"
Be       0.00000000       0.00000000       0.00000000       0.00000000       0.00000000       0.52971518
Be       0.00000000       0.00000000       3.29575758       0.00000000       0.00000000      -0.52971518
2
Properties=species:S:1:pos:R:3:forces:R:3 energy=-0.29036139787338844 pbc="F F F"
Be       0.00000000       0.00000000       0.00000000       0.00000000       0.00000000       0.49591750
Be       0.00000000       0.00000000       3.35454545       0.00000000       0.00000000      -0.49591750
2
Properties=species:S:1:pos:R:3:forces:R:3 energy=-0.26217450543341614 pbc="F F F"
Be       0.00000000       0.00000000       0.00000000       0.00000000       0.00000000       0.46324706
Be       0.00000000       0.00000000       3.41333333       0.00000000       0.00000000      -0.46324706
2
Properties=species:S:1:pos:R:3:forces:R:3 energy=-0.23586688111571447 pbc="F F F"
Be       0.00000000       0.00000000       0.00000000       0.00000000       0.00000000       0.43199226
Be       0.00000000       0.00000000       3.47212121       0.00000000       0.00000000      -0.43199226
2
Properties=species:S:1:pos:R:3:forces:R:3 energy=-0.2113554337732946 pbc="F F F"
Be       0.00000000       0.00000000       0.00000000       0.00000000       0.00000000       0.40212989
Be       0.00000000       0.00000000       3.53090909       0.00000000       0.00000000      -0.40212989
2
Properties=species:S:1:pos:R:3:forces:R:3 energy=-0.18856363121202863 pbc="F F F"
Be       0.00000000       0.00000000       0.00000000       0.00000000       0.00000000       0.37341923
Be       0.00000000       0.00000000       3.58969697       0.00000000       0.00000000      -0.37341923
2
Properties=species:S:1:pos:R:3:forces:R:3 energy=-0.1674340495522209 pbc="F F F"
Be       0.00000000       0.00000000       0.00000000       0.00000000       0.00000000       0.34552601
Be       0.00000000       0.00000000       3.64848485       0.00000000       0.00000000      -0.34552601
2
Properties=species:S:1:pos:R:3:forces:R:3 energy=-0.14792898067236096 pbc="F F F"
Be       0.00000000       0.00000000       0.00000000       0.00000000       0.00000000       0.31811029
Be       0.00000000       0.00000000       3.70727273       0.00000000       0.00000000      -0.31811029
2
Properties=species:S:1:pos:R:3:forces:R:3 energy=-0.13002799282541688 pbc="F F F"
Be       0.00000000       0.00000000       0.00000000       0.00000000       0.00000000       0.29089829
Be       0.00000000       0.00000000       3.76606061       0.00000000       0.00000000      -0.29089829
2
Properties=species:S:1:pos:R:3:forces:R:3 energy=-0.11372577356321328 pbc="F F F"
Be       0.00000000       0.00000000       0.00000000       0.00000000       0.00000000       0.26371962
Be       0.00000000       0.00000000       3.82484848       0.00000000       0.00000000      -0.26371962
2
Properties=species:S:1:pos:R:3:forces:R:3 energy=-0.09902183979461925 pbc="F F F"
Be       0.00000000       0.00000000       0.00000000       0.00000000       0.00000000       0.23650588
Be       0.00000000       0.00000000       3.88363636       0.00000000       0.00000000      -0.23650588
2
Properties=species:S:1:pos:R:3:forces:R:3 energy=-0.08591851604134476 pbc="F F F"
Be       0.00000000       0.00000000       0.00000000       0.00000000       0.00000000       0.20928910
Be       0.00000000       0.00000000       3.94242424       0.00000000       0.00000000      -0.20928910
2
Properties=species:S:1:pos:R:3:forces:R:3 energy=-0.0744127161115082 pbc="F F F"
Be       0.00000000       0.00000000       0.00000000       0.00000000       0.00000000       0.18217771
Be       0.00000000       0.00000000       4.00121212       0.00000000       0.00000000      -0.18217771
2
Properties=species:S:1:pos:R:3:forces:R:3 energy=-0.064493159927302 pbc="F F F"
Be       0.00000000       0.00000000       0.00000000       0.00000000       0.00000000       0.15535994
Be       0.00000000       0.00000000       4.06000000       0.00000000       0.00000000      -0.15535994
2
Properties=species:S:1:pos:R:3:forces:R:3 energy=-0.05613511691037897 pbc="F F F"
Be       0.00000000       0.00000000       0.00000000       0.00000000       0.00000000       0.12910779
Be       0.00000000       0.00000000       4.11878788       0.00000000       0.00000000      -0.12910779
2
Properties=species:S:1:pos:R:3:forces:R:3 energy=-0.04929486031652101 pbc="F F F"
Be       0.00000000       0.00000000       0.00000000       0.00000000       0.00000000       0.10379498
Be       0.00000000       0.00000000       4.17757576       0.00000000       0.00000000      -0.10379498
2
Properties=species:S:1:pos:R:3:forces:R:3 energy=-0.04390345214624417 pbc="F F F"
Be       0.00000000       0.00000000       0.00000000       0.00000000       0.00000000       0.07990672
Be       0.00000000       0.00000000       4.23636364       0.00000000       0.00000000      -0.07990672
2
Properties=species:S:1:pos:R:3:forces:R:3 energy=-0.039860710240655045 pbc="F F F"
Be       0.00000000       0.00000000       0.00000000       0.00000000       0.00000000       0.05800758
Be       0.00000000       0.00000000       4.29515152       0.00000000       0.00000000      -0.05800758
2
Properties=species:S:1:pos:R:3:forces:R:3 energy=-0.03703289721207948 pbc="F F F"
Be       0.00000000       0.00000000       0.00000000       0.00000000       0.00000000       0.03866924
Be       0.00000000       0.00000000       4.35393939       0.00000000       0.00000000      -0.03866924
2
Properties=species:S:1:pos:R:3:forces:R:3 energy=-0.03525483524100009 pbc="F F F"
Be       0.00000000       0.00000000       0.00000000       0.00000000       0.00000000       0.02235280
Be       0.00000000       0.00000000       4.41272727       0.00000000       0.00000000      -0.02235280
2
Properties=species:S:1:pos:R:3:forces:R:3 energy=-0.034340433662230524 pbc="F F F"
Be       0.00000000       0.00000000       0.00000000       0.00000000       0.00000000       0.00930809
Be       0.00000000       0.00000000       4.47151515       0.00000000       0.00000000      -0.00930809
2
Properties=species:S:1:pos:R:3:forces:R:3 energy=-0.03409660671574022 pbc="F F F"
Be       0.00000000       0.00000000       0.00000000       0.00000000       0.00000000      -0.00048781
Be       0.00000000       0.00000000       4.53030303       0.00000000       0.00000000       0.00048781
2
Properties=species:S:1:pos:R:3:forces:R:3 energy=-0.034339401368053364 pbc="F F F"
Be       0.00000000       0.00000000       0.00000000       0.00000000       0.00000000      -0.00730957
Be       0.00000000       0.00000000       4.58909091       0.00000000       0.00000000       0.00730957
2
Properties=species:S:1:pos:R:3:forces:R:3 energy=-0.03490644618375971 pbc="F F F"
Be       0.00000000       0.00000000       0.00000000       0.00000000       0.00000000      -0.01160210
Be       0.00000000       0.00000000       4.64787879       0.00000000       0.00000000       0.01160210
2
Properties=species:S:1:pos:R:3:forces:R:3 energy=-0.035664033434121806 pbc="F F F"
Be       0.00000000       0.00000000       0.00000000       0.00000000       0.00000000      -0.01387638
Be       0.00000000       0.00000000       4.70666667       0.00000000       0.00000000       0.01387638
2
Properties=species:S:1:pos:R:3:forces:R:3 energy=-0.03650820923997 pbc="F F F"
Be       0.00000000       0.00000000       0.00000000       0.00000000       0.00000000      -0.01462929
Be       0.00000000       0.00000000       4.76545455       0.00000000       0.00000000       0.01462929
2
Properties=species:S:1:pos:R:3:forces:R:3 energy=-0.037362854339251655 pbc="F F F"
Be       0.00000000       0.00000000       0.00000000       0.00000000       0.00000000      -0.01429812
Be       0.00000000       0.00000000       4.82424242       0.00000000       0.00000000       0.01429812
2
Properties=species:S:1:pos:R:3:forces:R:3 energy=-0.03817515958473877 pbc="F F F"
Be       0.00000000       0.00000000       0.00000000       0.00000000       0.00000000      -0.01324683
Be       0.00000000       0.00000000       4.88303030       0.00000000       0.00000000       0.01324683
2
Properties=species:S:1:pos:R:3:forces:R:3 energy=-0.03891195383423662 pbc="F F F"
Be       0.00000000       0.00000000       0.00000000       0.00000000       0.00000000      -0.01176531
Be       0.00000000       0.00000000       4.94181818       0.00000000       0.00000000       0.01176531
2
Properties=species:S:1:pos:R:3:forces:R:3 energy=-0.039554485225864876 pbc="F F F"
Be       0.00000000       0.00000000       0.00000000       0.00000000       0.00000000      -0.01007199
Be       0.00000000       0.00000000       5.00060606       0.00000000       0.00000000       0.01007199
2
Properties=species:S:1:pos:R:3:forces:R:3 energy=-0.04009515320027814 pbc="F F F"
Be       0.00000000       0.00000000       0.00000000       0.00000000       0.00000000      -0.00832112
Be       0.00000000       0.00000000       5.05939394       0.00000000       0.00000000       0.00832112
2
Properties=species:S:1:pos:R:3:forces:R:3 energy=-0.04053365597977526 pbc="F F F"
Be       0.00000000       0.00000000       0.00000000       0.00000000       0.00000000      -0.00660871
Be       0.00000000       0.00000000       5.11818182       0.00000000       0.00000000       0.00660871
2
Properties=species:S:1:pos:R:3:forces:R:3 energy=-0.04087393581251576 pbc="F F F"
Be       0.00000000       0.00000000       0.00000000       0.00000000       0.00000000      -0.00498721
Be       0.00000000       0.00000000       5.17696970       0.00000000       0.00000000       0.00498721
2
Properties=species:S:1:pos:R:3:forces:R:3 energy=-0.0411221995381944 pbc="F F F"
Be       0.00000000       0.00000000       0.00000000       0.00000000       0.00000000      -0.00348073
Be       0.00000000       0.00000000       5.23575758       0.00000000       0.00000000       0.00348073
2
Properties=species:S:1:pos:R:3:forces:R:3 energy=-0.041285576895072756 pbc="F F F"
Be       0.00000000       0.00000000       0.00000000       0.00000000       0.00000000      -0.00210016
Be       0.00000000       0.00000000       5.29454545       0.00000000       0.00000000       0.00210016
2
Properties=species:S:1:pos:R:3:forces:R:3 energy=-0.04137174394267842 pbc="F F F"
Be       0.00000000       0.00000000       0.00000000       0.00000000       0.00000000      -0.00085228
Be       0.00000000       0.00000000       5.35333333       0.00000000       0.00000000       0.00085228
2
Properties=species:S:1:pos:R:3:forces:R:3 energy=-0.04138861515463318 pbc="F F F"
Be       0.00000000       0.00000000       0.00000000       0.00000000       0.00000000       0.00025494
Be       0.00000000       0.00000000       5.41212121       0.00000000       0.00000000      -0.00025494
2
Properties=species:S:1:pos:R:3:forces:R:3 energy=-0.04134463815456868 pbc="F F F"
Be       0.00000000       0.00000000       0.00000000       0.00000000       0.00000000       0.00121567
Be       0.00000000       0.00000000       5.47090909       0.00000000       0.00000000      -0.00121567
2
Properties=species:S:1:pos:R:3:forces:R:3 energy=-0.04124857489294111 pbc="F F F"
Be       0.00000000       0.00000000       0.00000000       0.00000000       0.00000000       0.00202830
Be       0.00000000       0.00000000       5.52969697       0.00000000       0.00000000      -0.00202830
2
Properties=species:S:1:pos:R:3:forces:R:3 energy=-0.041108978522478315 pbc="F F F"
Be       0.00000000       0.00000000       0.00000000       0.00000000       0.00000000       0.00269692
Be       0.00000000       0.00000000       5.58848485       0.00000000       0.00000000      -0.00269692
2
Properties=species:S:1:pos:R:3:forces:R:3 energy=-0.040934115547564945 pbc="F F F"
Be       0.00000000       0.00000000       0.00000000       0.00000000       0.00000000       0.00323095
Be       0.00000000       0.00000000       5.64727273       0.00000000       0.00000000      -0.00323095
2
Properties=species:S:1:pos:R:3:forces:R:3 energy=-0.04073149393130057 pbc="F F F"
Be       0.00000000       0.00000000       0.00000000       0.00000000       0.00000000       0.00364139
Be       0.00000000       0.00000000       5.70606061       0.00000000       0.00000000      -0.00364139
2
Properties=species:S:1:pos:R:3:forces:R:3 energy=-0.04050832906427145 pbc="F F F"
Be       0.00000000       0.00000000       0.00000000       0.00000000       0.00000000       0.00393839
Be       0.00000000       0.00000000       5.76484848       0.00000000       0.00000000      -0.00393839
2
Properties=species:S:1:pos:R:3:forces:R:3 energy=-0.04027067687135084 pbc="F F F"
Be       0.00000000       0.00000000       0.00000000       0.00000000       0.00000000       0.00412540
Be       0.00000000       0.00000000       5.82363636       0.00000000       0.00000000      -0.00412540
2
Properties=species:S:1:pos:R:3:forces:R:3 energy=-0.04002534095683719 pbc="F F F"
Be       0.00000000       0.00000000       0.00000000       0.00000000       0.00000000       0.00419899
Be       0.00000000       0.00000000       5.88242424       0.00000000       0.00000000      -0.00419899
2
Properties=species:S:1:pos:R:3:forces:R:3 energy=-0.039779392422487084 pbc="F F F"
Be       0.00000000       0.00000000       0.00000000       0.00000000       0.00000000       0.00414866
Be       0.00000000       0.00000000       5.94121212       0.00000000       0.00000000      -0.00414866
2
Properties=species:S:1:pos:R:3:forces:R:3 energy=-0.039540343299251116 pbc="F F F"
Be       0.00000000       0.00000000       0.00000000       0.00000000       0.00000000       0.00395838
Be       0.00000000       0.00000000       6.00000000       0.00000000       0.00000000      -0.00395838
