2
Properties=species:S:1:pos:R:3:forces:R:3 energy=5500.283309804615 pbc="F F F"
Br       0.00000000       0.00000000       0.00000000       0.00000000       0.00000000  -88059.40625000
Br       0.00000000       0.00000000       0.18000000       0.00000000       0.00000000   88059.40625000
2
Properties=species:S:1:pos:R:3:forces:R:3 energy=2328.514266835865 pbc="F F F"
Br       0.00000000       0.00000000       0.00000000       0.00000000       0.00000000  -31310.44921875
Br       0.00000000       0.00000000       0.23878788       0.00000000       0.00000000   31310.44921875
2
Properties=species:S:1:pos:R:3:forces:R:3 energy=1112.2231291405524 pbc="F F F"
Br       0.00000000       0.00000000       0.00000000       0.00000000       0.00000000  -13111.84277344
Br       0.00000000       0.00000000       0.29757576       0.00000000       0.00000000   13111.84277344
2
Properties=species:S:1:pos:R:3:forces:R:3 energy=577.895248287513 pbc="F F F"
Br       0.00000000       0.00000000       0.00000000       0.00000000       0.00000000   -6079.99560547
Br       0.00000000       0.00000000       0.35636364       0.00000000       0.00000000    6079.99560547
2
Properties=species:S:1:pos:R:3:forces:R:3 energy=322.3041228119031 pbc="F F F"
Br       0.00000000       0.00000000       0.00000000       0.00000000       0.00000000   -3009.60473633
Br       0.00000000       0.00000000       0.41515152       0.00000000       0.00000000    3009.60473633
2
Properties=species:S:1:pos:R:3:forces:R:3 energy=193.29779043661694 pbc="F F F"
Br       0.00000000       0.00000000       0.00000000       0.00000000       0.00000000   -1549.51782227
Br       0.00000000       0.00000000       0.47393939       0.00000000       0.00000000    1549.51782227
2
Properties=species:S:1:pos:R:3:forces:R:3 energy=126.3579406274508 pbc="F F F"
Br       0.00000000       0.00000000       0.00000000       0.00000000       0.00000000    -806.97277832
Br       0.00000000       0.00000000       0.53272727       0.00000000       0.00000000     806.97277832
2
Properties=species:S:1:pos:R:3:forces:R:3 energy=91.81165317002527 pbc="F F F"
Br       0.00000000       0.00000000       0.00000000       0.00000000       0.00000000    -407.96289062
Br       0.00000000       0.00000000       0.59151515       0.00000000       0.00000000     407.96289062
2
Properties=species:S:1:pos:R:3:forces:R:3 energy=74.89235703208972 pbc="F F F"
Br       0.00000000       0.00000000       0.00000000       0.00000000       0.00000000    -190.48535156
Br       0.00000000       0.00000000       0.65030303       0.00000000       0.00000000     190.48535156
2
Properties=species:S:1:pos:R:3:forces:R:3 energy=67.23725164401002 pbc="F F F"
Br       0.00000000       0.00000000       0.00000000       0.00000000       0.00000000     -84.81546021
Br       0.00000000       0.00000000       0.70909091       0.00000000       0.00000000      84.81546021
2
Properties=species:S:1:pos:R:3:forces:R:3 energy=63.54214162707603 pbc="F F F"
Br       0.00000000       0.00000000       0.00000000       0.00000000       0.00000000     -49.81885529
Br       0.00000000       0.00000000       0.76787879       0.00000000       0.00000000      49.81885529
2
Properties=species:S:1:pos:R:3:forces:R:3 energy=60.61287038524436 pbc="F F F"
Br       0.00000000       0.00000000       0.00000000       0.00000000       0.00000000     -54.14059830
Br       0.00000000       0.00000000       0.82666667       0.00000000       0.00000000      54.14059830
2
Properties=species:S:1:pos:R:3:forces:R:3 energy=56.88290964255206 pbc="F F F"
Br       0.00000000       0.00000000       0.00000000       0.00000000       0.00000000     -73.81759644
Br       0.00000000       0.00000000       0.88545455       0.00000000       0.00000000      73.81759644
2
Properties=species:S:1:pos:R:3:forces:R:3 energy=51.922602479933666 pbc="F F F"
Br       0.00000000       0.00000000       0.00000000       0.00000000       0.00000000     -94.23702240
Br       0.00000000       0.00000000       0.94424242       0.00000000       0.00000000      94.23702240
2
Properties=species:S:1:pos:R:3:forces:R:3 energy=45.95865643508083 pbc="F F F"
Br       0.00000000       0.00000000       0.00000000       0.00000000       0.00000000    -106.87680817
Br       0.00000000       0.00000000       1.00303030       0.00000000       0.00000000     106.87680817
2
Properties=species:S:1:pos:R:3:forces:R:3 energy=39.57500257860216 pbc="F F F"
Br       0.00000000       0.00000000       0.00000000       0.00000000       0.00000000    -108.62797546
Br       0.00000000       0.00000000       1.06181818       0.00000000       0.00000000     108.62797546
2
Properties=species:S:1:pos:R:3:forces:R:3 energy=33.33202005285955 pbc="F F F"
Br       0.00000000       0.00000000       0.00000000       0.00000000       0.00000000    -103.00999451
Br       0.00000000       0.00000000       1.12060606       0.00000000       0.00000000     103.00999451
2
Properties=species:S:1:pos:R:3:forces:R:3 energy=27.49863561772057 pbc="F F F"
Br       0.00000000       0.00000000       0.00000000       0.00000000       0.00000000     -95.46836853
Br       0.00000000       0.00000000       1.17939394       0.00000000       0.00000000      95.46836853
2
Properties=species:S:1:pos:R:3:forces:R:3 energy=22.131097152261443 pbc="F F F"
Br       0.00000000       0.00000000       0.00000000       0.00000000       0.00000000     -86.29969025
Br       0.00000000       0.00000000       1.23818182       0.00000000       0.00000000      86.29969025
2
Properties=species:S:1:pos:R:3:forces:R:3 energy=17.495380801867757 pbc="F F F"
Br       0.00000000       0.00000000       0.00000000       0.00000000       0.00000000     -70.48365021
Br       0.00000000       0.00000000       1.29696970       0.00000000       0.00000000      70.48365021
2
Properties=species:S:1:pos:R:3:forces:R:3 energy=13.851818905334472 pbc="F F F"
Br       0.00000000       0.00000000       0.00000000       0.00000000       0.00000000     -54.15035629
Br       0.00000000       0.00000000       1.35575758       0.00000000       0.00000000      54.15035629
2
Properties=species:S:1:pos:R:3:forces:R:3 energy=11.013713765690925 pbc="F F F"
Br       0.00000000       0.00000000       0.00000000       0.00000000       0.00000000     -43.41489410
Br       0.00000000       0.00000000       1.41454545       0.00000000       0.00000000      43.41489410
2
Properties=species:S:1:pos:R:3:forces:R:3 energy=8.65027135263642 pbc="F F F"
Br       0.00000000       0.00000000       0.00000000       0.00000000       0.00000000     -37.58155441
Br       0.00000000       0.00000000       1.47333333       0.00000000       0.00000000      37.58155441
2
Properties=species:S:1:pos:R:3:forces:R:3 energy=6.552746074049606 pbc="F F F"
Br       0.00000000       0.00000000       0.00000000       0.00000000       0.00000000     -33.93560410
Br       0.00000000       0.00000000       1.53212121       0.00000000       0.00000000      33.93560410
2
Properties=species:S:1:pos:R:3:forces:R:3 energy=4.658401325169336 pbc="F F F"
Br       0.00000000       0.00000000       0.00000000       0.00000000       0.00000000     -30.43111801
Br       0.00000000       0.00000000       1.59090909       0.00000000       0.00000000      30.43111801
2
Properties=species:S:1:pos:R:3:forces:R:3 energy=2.987654559358117 pbc="F F F"
Br       0.00000000       0.00000000       0.00000000       0.00000000       0.00000000     -26.30663109
Br       0.00000000       0.00000000       1.64969697       0.00000000       0.00000000      26.30663109
2
Properties=species:S:1:pos:R:3:forces:R:3 energy=1.5724286175249143 pbc="F F F"
Br       0.00000000       0.00000000       0.00000000       0.00000000       0.00000000     -21.82964706
Br       0.00000000       0.00000000       1.70848485       0.00000000       0.00000000      21.82964706
2
Properties=species:S:1:pos:R:3:forces:R:3 energy=0.41691096388789434 pbc="F F F"
Br       0.00000000       0.00000000       0.00000000       0.00000000       0.00000000     -17.55252838
Br       0.00000000       0.00000000       1.76727273       0.00000000       0.00000000      17.55252838
2
Properties=species:S:1:pos:R:3:forces:R:3 energy=-0.5019402553362982 pbc="F F F"
Br       0.00000000       0.00000000       0.00000000       0.00000000       0.00000000     -13.80853939
Br       0.00000000       0.00000000       1.82606061       0.00000000       0.00000000      13.80853939
2
Properties=species:S:1:pos:R:3:forces:R:3 energy=-1.2186444011748814 pbc="F F F"
Br       0.00000000       0.00000000       0.00000000       0.00000000       0.00000000     -10.67383862
Br       0.00000000       0.00000000       1.88484848       0.00000000       0.00000000      10.67383862
2
Properties=species:S:1:pos:R:3:forces:R:3 energy=-1.768074923090953 pbc="F F F"
Br       0.00000000       0.00000000       0.00000000       0.00000000       0.00000000      -8.10719109
Br       0.00000000       0.00000000       1.94363636       0.00000000       0.00000000       8.10719109
2
Properties=species:S:1:pos:R:3:forces:R:3 energy=-2.1815749116121896 pbc="F F F"
Br       0.00000000       0.00000000       0.00000000       0.00000000       0.00000000      -6.03593445
Br       0.00000000       0.00000000       2.00242424       0.00000000       0.00000000       6.03593445
2
Properties=species:S:1:pos:R:3:forces:R:3 energy=-2.4856611398820725 pbc="F F F"
Br       0.00000000       0.00000000       0.00000000       0.00000000       0.00000000      -4.36768723
Br       0.00000000       0.00000000       2.06121212       0.00000000       0.00000000       4.36768723
2
Properties=species:S:1:pos:R:3:forces:R:3 energy=-2.7009013531547437 pbc="F F F"
Br       0.00000000       0.00000000       0.00000000       0.00000000       0.00000000      -2.99548745
Br       0.00000000       0.00000000       2.12000000       0.00000000       0.00000000       2.99548745
2
Properties=species:S:1:pos:R:3:forces:R:3 energy=-2.841769728115403 pbc="F F F"
Br       0.00000000       0.00000000       0.00000000       0.00000000       0.00000000      -1.82422721
Br       0.00000000       0.00000000       2.17878788       0.00000000       0.00000000       1.82422721
2
Properties=species:S:1:pos:R:3:forces:R:3 energy=-2.918150995507238 pbc="F F F"
Br       0.00000000       0.00000000       0.00000000       0.00000000       0.00000000      -0.79532331
Br       0.00000000       0.00000000       2.23757576       0.00000000       0.00000000       0.79532331
2
Properties=species:S:1:pos:R:3:forces:R:3 energy=-2.9376273701491007 pbc="F F F"
Br       0.00000000       0.00000000       0.00000000       0.00000000       0.00000000       0.11316436
Br       0.00000000       0.00000000       2.29636364       0.00000000       0.00000000      -0.11316436
2
Properties=species:S:1:pos:R:3:forces:R:3 energy=-2.9071520109422178 pbc="F F F"
Br       0.00000000       0.00000000       0.00000000       0.00000000       0.00000000       0.90386969
Br       0.00000000       0.00000000       2.35515152       0.00000000       0.00000000      -0.90386969
2
Properties=species:S:1:pos:R:3:forces:R:3 energy=-2.833695847307476 pbc="F F F"
Br       0.00000000       0.00000000       0.00000000       0.00000000       0.00000000       1.57508743
Br       0.00000000       0.00000000       2.41393939       0.00000000       0.00000000      -1.57508743
2
Properties=species:S:1:pos:R:3:forces:R:3 energy=-2.724358170560076 pbc="F F F"
Br       0.00000000       0.00000000       0.00000000       0.00000000       0.00000000       2.12363815
Br       0.00000000       0.00000000       2.47272727       0.00000000       0.00000000      -2.12363815
2
Properties=species:S:1:pos:R:3:forces:R:3 energy=-2.586574334505802 pbc="F F F"
Br       0.00000000       0.00000000       0.00000000       0.00000000       0.00000000       2.54095960
Br       0.00000000       0.00000000       2.53151515       0.00000000       0.00000000      -2.54095960
2
Properties=species:S:1:pos:R:3:forces:R:3 energy=-2.428454202117387 pbc="F F F"
Br       0.00000000       0.00000000       0.00000000       0.00000000       0.00000000       2.81290746
Br       0.00000000       0.00000000       2.59030303       0.00000000       0.00000000      -2.81290746
2
Properties=species:S:1:pos:R:3:forces:R:3 energy=-2.2589342375810504 pbc="F F F"
Br       0.00000000       0.00000000       0.00000000       0.00000000       0.00000000       2.92769074
Br       0.00000000       0.00000000       2.64909091       0.00000000       0.00000000      -2.92769074
2
Properties=species:S:1:pos:R:3:forces:R:3 energy=-2.0872759219553174 pbc="F F F"
Br       0.00000000       0.00000000       0.00000000       0.00000000       0.00000000       2.88776541
Br       0.00000000       0.00000000       2.70787879       0.00000000       0.00000000      -2.88776541
2
Properties=species:S:1:pos:R:3:forces:R:3 energy=-1.921991640290218 pbc="F F F"
Br       0.00000000       0.00000000       0.00000000       0.00000000       0.00000000       2.71634912
Br       0.00000000       0.00000000       2.76666667       0.00000000       0.00000000      -2.71634912
2
Properties=species:S:1:pos:R:3:forces:R:3 energy=-1.7696907785499612 pbc="F F F"
Br       0.00000000       0.00000000       0.00000000       0.00000000       0.00000000       2.45363259
Br       0.00000000       0.00000000       2.82545455       0.00000000       0.00000000      -2.45363259
2
Properties=species:S:1:pos:R:3:forces:R:3 energy=-1.6343823722757336 pbc="F F F"
Br       0.00000000       0.00000000       0.00000000       0.00000000       0.00000000       2.14582539
Br       0.00000000       0.00000000       2.88424242       0.00000000       0.00000000      -2.14582539
2
Properties=species:S:1:pos:R:3:forces:R:3 energy=-1.517467167256818 pbc="F F F"
Br       0.00000000       0.00000000       0.00000000       0.00000000       0.00000000       1.83386457
Br       0.00000000       0.00000000       2.94303030       0.00000000       0.00000000      -1.83386457
2
Properties=species:S:1:pos:R:3:forces:R:3 energy=-1.4182724177787631 pbc="F F F"
Br       0.00000000       0.00000000       0.00000000       0.00000000       0.00000000       1.54654241
Br       0.00000000       0.00000000       3.00181818       0.00000000       0.00000000      -1.54654241
2
Properties=species:S:1:pos:R:3:forces:R:3 energy=-1.3348428676346686 pbc="F F F"
Br       0.00000000       0.00000000       0.00000000       0.00000000       0.00000000       1.29904938
Br       0.00000000       0.00000000       3.06060606       0.00000000       0.00000000      -1.29904938
2
Properties=species:S:1:pos:R:3:forces:R:3 energy=-1.2646740242715246 pbc="F F F"
Br       0.00000000       0.00000000       0.00000000       0.00000000       0.00000000       1.09530449
Br       0.00000000       0.00000000       3.11939394       0.00000000       0.00000000      -1.09530449
2
Properties=species:S:1:pos:R:3:forces:R:3 energy=-1.205271048880052 pbc="F F F"
Br       0.00000000       0.00000000       0.00000000       0.00000000       0.00000000       0.93180722
Br       0.00000000       0.00000000       3.17818182       0.00000000       0.00000000      -0.93180722
2
Properties=species:S:1:pos:R:3:forces:R:3 energy=-1.1544676530672873 pbc="F F F"
Br       0.00000000       0.00000000       0.00000000       0.00000000       0.00000000       0.80141658
Br       0.00000000       0.00000000       3.23696970       0.00000000       0.00000000      -0.80141658
2
Properties=species:S:1:pos:R:3:forces:R:3 energy=-1.1105465006077306 pbc="F F F"
Br       0.00000000       0.00000000       0.00000000       0.00000000       0.00000000       0.69645900
Br       0.00000000       0.00000000       3.29575758       0.00000000       0.00000000      -0.69645900
2
Properties=species:S:1:pos:R:3:forces:R:3 energy=-1.072205892391234 pbc="F F F"
Br       0.00000000       0.00000000       0.00000000       0.00000000       0.00000000       0.61067742
Br       0.00000000       0.00000000       3.35454545       0.00000000       0.00000000      -0.61067742
2
Properties=species:S:1:pos:R:3:forces:R:3 energy=-1.0384520885964657 pbc="F F F"
Br       0.00000000       0.00000000       0.00000000       0.00000000       0.00000000       0.53991270
Br       0.00000000       0.00000000       3.41333333       0.00000000       0.00000000      -0.53991270
2
Properties=species:S:1:pos:R:3:forces:R:3 energy=-1.008477726134928 pbc="F F F"
Br       0.00000000       0.00000000       0.00000000       0.00000000       0.00000000       0.48183236
Br       0.00000000       0.00000000       3.47212121       0.00000000       0.00000000      -0.48183236
2
Properties=species:S:1:pos:R:3:forces:R:3 energy=-0.9815772234848767 pbc="F F F"
Br       0.00000000       0.00000000       0.00000000       0.00000000       0.00000000       0.43516064
Br       0.00000000       0.00000000       3.53090909       0.00000000       0.00000000      -0.43516064
2
Properties=species:S:1:pos:R:3:forces:R:3 energy=-0.9571090686221423 pbc="F F F"
Br       0.00000000       0.00000000       0.00000000       0.00000000       0.00000000       0.39889267
Br       0.00000000       0.00000000       3.58969697       0.00000000       0.00000000      -0.39889267
2
Properties=species:S:1:pos:R:3:forces:R:3 energy=-0.9344972404440967 pbc="F F F"
Br       0.00000000       0.00000000       0.00000000       0.00000000       0.00000000       0.37177742
Br       0.00000000       0.00000000       3.64848485       0.00000000       0.00000000      -0.37177742
2
Properties=species:S:1:pos:R:3:forces:R:3 energy=-0.9132504123846312 pbc="F F F"
Br       0.00000000       0.00000000       0.00000000       0.00000000       0.00000000       0.35214829
Br       0.00000000       0.00000000       3.70727273       0.00000000       0.00000000      -0.35214829
2
Properties=species:S:1:pos:R:3:forces:R:3 energy=-0.8929847223883969 pbc="F F F"
Br       0.00000000       0.00000000       0.00000000       0.00000000       0.00000000       0.33803359
Br       0.00000000       0.00000000       3.76606061       0.00000000       0.00000000      -0.33803359
2
Properties=species:S:1:pos:R:3:forces:R:3 energy=-0.8734374554685722 pbc="F F F"
Br       0.00000000       0.00000000       0.00000000       0.00000000       0.00000000       0.32740679
Br       0.00000000       0.00000000       3.82484848       0.00000000       0.00000000      -0.32740679
2
Properties=species:S:1:pos:R:3:forces:R:3 energy=-0.8544574325198795 pbc="F F F"
Br       0.00000000       0.00000000       0.00000000       0.00000000       0.00000000       0.31844813
Br       0.00000000       0.00000000       3.88363636       0.00000000       0.00000000      -0.31844813
2
Properties=species:S:1:pos:R:3:forces:R:3 energy=-0.835991085422421 pbc="F F F"
Br       0.00000000       0.00000000       0.00000000       0.00000000       0.00000000       0.30974722
Br       0.00000000       0.00000000       3.94242424       0.00000000       0.00000000      -0.30974722
2
Properties=species:S:1:pos:R:3:forces:R:3 energy=-0.8180515036400668 pbc="F F F"
Br       0.00000000       0.00000000       0.00000000       0.00000000       0.00000000       0.30042991
Br       0.00000000       0.00000000       4.00121212       0.00000000       0.00000000      -0.30042991
2
Properties=species:S:1:pos:R:3:forces:R:3 energy=-0.8006863188202576 pbc="F F F"
Br       0.00000000       0.00000000       0.00000000       0.00000000       0.00000000       0.29018515
Br       0.00000000       0.00000000       4.06000000       0.00000000       0.00000000      -0.29018515
2
Properties=species:S:1:pos:R:3:forces:R:3 energy=-0.7839467472246349 pbc="F F F"
Br       0.00000000       0.00000000       0.00000000       0.00000000       0.00000000       0.27923095
Br       0.00000000       0.00000000       4.11878788       0.00000000       0.00000000      -0.27923095
2
Properties=species:S:1:pos:R:3:forces:R:3 energy=-0.7678574897993882 pbc="F F F"
Br       0.00000000       0.00000000       0.00000000       0.00000000       0.00000000       0.26818320
Br       0.00000000       0.00000000       4.17757576       0.00000000       0.00000000      -0.26818320
2
Properties=species:S:1:pos:R:3:forces:R:3 energy=-0.752400437348501 pbc="F F F"
Br       0.00000000       0.00000000       0.00000000       0.00000000       0.00000000       0.25786287
Br       0.00000000       0.00000000       4.23636364       0.00000000       0.00000000      -0.25786287
2
Properties=species:S:1:pos:R:3:forces:R:3 energy=-0.7375090718648986 pbc="F F F"
Br       0.00000000       0.00000000       0.00000000       0.00000000       0.00000000       0.24905215
Br       0.00000000       0.00000000       4.29515152       0.00000000       0.00000000      -0.24905215
2
Properties=species:S:1:pos:R:3:forces:R:3 energy=-0.7230779684275683 pbc="F F F"
Br       0.00000000       0.00000000       0.00000000       0.00000000       0.00000000       0.24228050
Br       0.00000000       0.00000000       4.35393939       0.00000000       0.00000000      -0.24228050
2
Properties=species:S:1:pos:R:3:forces:R:3 energy=-0.7089799417483466 pbc="F F F"
Br       0.00000000       0.00000000       0.00000000       0.00000000       0.00000000       0.23769118
Br       0.00000000       0.00000000       4.41272727       0.00000000       0.00000000      -0.23769118
2
Properties=species:S:1:pos:R:3:forces:R:3 energy=-0.6950926512262875 pbc="F F F"
Br       0.00000000       0.00000000       0.00000000       0.00000000       0.00000000       0.23505171
Br       0.00000000       0.00000000       4.47151515       0.00000000       0.00000000      -0.23505171
2
Properties=species:S:1:pos:R:3:forces:R:3 energy=-0.6813145860798407 pbc="F F F"
Br       0.00000000       0.00000000       0.00000000       0.00000000       0.00000000       0.23387481
Br       0.00000000       0.00000000       4.53030303       0.00000000       0.00000000      -0.23387481
2
Properties=species:S:1:pos:R:3:forces:R:3 energy=-0.6675772684599194 pbc="F F F"
Br       0.00000000       0.00000000       0.00000000       0.00000000       0.00000000       0.23358692
Br       0.00000000       0.00000000       4.58909091       0.00000000       0.00000000      -0.23358692
2
Properties=species:S:1:pos:R:3:forces:R:3 energy=-0.6538438076832908 pbc="F F F"
Br       0.00000000       0.00000000       0.00000000       0.00000000       0.00000000       0.23365851
Br       0.00000000       0.00000000       4.64787879       0.00000000       0.00000000      -0.23365851
2
Properties=species:S:1:pos:R:3:forces:R:3 energy=-0.6401055972185128 pbc="F F F"
Br       0.00000000       0.00000000       0.00000000       0.00000000       0.00000000       0.23367648
Br       0.00000000       0.00000000       4.70666667       0.00000000       0.00000000      -0.23367648
2
Properties=species:S:1:pos:R:3:forces:R:3 energy=-0.6263761538167428 pbc="F F F"
Br       0.00000000       0.00000000       0.00000000       0.00000000       0.00000000       0.23334174
Br       0.00000000       0.00000000       4.76545455       0.00000000       0.00000000      -0.23334174
2
Properties=species:S:1:pos:R:3:forces:R:3 energy=-0.6126807231288569 pbc="F F F"
Br       0.00000000       0.00000000       0.00000000       0.00000000       0.00000000       0.23246957
Br       0.00000000       0.00000000       4.82424242       0.00000000       0.00000000      -0.23246957
2
Properties=species:S:1:pos:R:3:forces:R:3 energy=-0.5990565735609164 pbc="F F F"
Br       0.00000000       0.00000000       0.00000000       0.00000000       0.00000000       0.23096494
Br       0.00000000       0.00000000       4.88303030       0.00000000       0.00000000      -0.23096494
2
Properties=species:S:1:pos:R:3:forces:R:3 energy=-0.5855377620357269 pbc="F F F"
Br       0.00000000       0.00000000       0.00000000       0.00000000       0.00000000       0.22881170
Br       0.00000000       0.00000000       4.94181818       0.00000000       0.00000000      -0.22881170
2
Properties=species:S:1:pos:R:3:forces:R:3 energy=-0.5721650774651147 pbc="F F F"
Br       0.00000000       0.00000000       0.00000000       0.00000000       0.00000000       0.22600588
Br       0.00000000       0.00000000       5.00060606       0.00000000       0.00000000      -0.22600588
2
Properties=species:S:1:pos:R:3:forces:R:3 energy=-0.5589784071876378 pbc="F F F"
Br       0.00000000       0.00000000       0.00000000       0.00000000       0.00000000       0.22247817
Br       0.00000000       0.00000000       5.05939394       0.00000000       0.00000000      -0.22247817
2
Properties=species:S:1:pos:R:3:forces:R:3 energy=-0.54602538122599 pbc="F F F"
Br       0.00000000       0.00000000       0.00000000       0.00000000       0.00000000       0.21800934
Br       0.00000000       0.00000000       5.11818182       0.00000000       0.00000000      -0.21800934
2
Properties=species:S:1:pos:R:3:forces:R:3 energy=-0.5333726878540396 pbc="F F F"
Br       0.00000000       0.00000000       0.00000000       0.00000000       0.00000000       0.21221286
Br       0.00000000       0.00000000       5.17696970       0.00000000       0.00000000      -0.21221286
2
Properties=species:S:1:pos:R:3:forces:R:3 energy=-0.5211116330638821 pbc="F F F"
Br       0.00000000       0.00000000       0.00000000       0.00000000       0.00000000       0.20457827
Br       0.00000000       0.00000000       5.23575758       0.00000000       0.00000000      -0.20457827
2
Properties=species:S:1:pos:R:3:forces:R:3 energy=-0.5093668212531988 pbc="F F F"
Br       0.00000000       0.00000000       0.00000000       0.00000000       0.00000000       0.19456422
Br       0.00000000       0.00000000       5.29454545       0.00000000       0.00000000      -0.19456422
2
Properties=species:S:1:pos:R:3:forces:R:3 energy=-0.4982891838576839 pbc="F F F"
Br       0.00000000       0.00000000       0.00000000       0.00000000       0.00000000       0.18179221
Br       0.00000000       0.00000000       5.35333333       0.00000000       0.00000000      -0.18179221
2
Properties=species:S:1:pos:R:3:forces:R:3 energy=-0.48804825015013525 pbc="F F F"
Br       0.00000000       0.00000000       0.00000000       0.00000000       0.00000000       0.16611806
Br       0.00000000       0.00000000       5.41212121       0.00000000       0.00000000      -0.16611806
2
Properties=species:S:1:pos:R:3:forces:R:3 energy=-0.4788099913396413 pbc="F F F"
Br       0.00000000       0.00000000       0.00000000       0.00000000       0.00000000       0.14777312
Br       0.00000000       0.00000000       5.47090909       0.00000000       0.00000000      -0.14777312
2
Properties=species:S:1:pos:R:3:forces:R:3 energy=-0.47071513517228286 pbc="F F F"
Br       0.00000000       0.00000000       0.00000000       0.00000000       0.00000000       0.12730910
Br       0.00000000       0.00000000       5.52969697       0.00000000       0.00000000      -0.12730910
2
Properties=species:S:1:pos:R:3:forces:R:3 energy=-0.46386714965554443 pbc="F F F"
Br       0.00000000       0.00000000       0.00000000       0.00000000       0.00000000       0.10554361
Br       0.00000000       0.00000000       5.58848485       0.00000000       0.00000000      -0.10554361
2
Properties=species:S:1:pos:R:3:forces:R:3 energy=-0.4583116781639433 pbc="F F F"
Br       0.00000000       0.00000000       0.00000000       0.00000000       0.00000000       0.08349639
Br       0.00000000       0.00000000       5.64727273       0.00000000       0.00000000      -0.08349639
2
Properties=species:S:1:pos:R:3:forces:R:3 energy=-0.45403503269184436 pbc="F F F"
Br       0.00000000       0.00000000       0.00000000       0.00000000       0.00000000       0.06227676
Br       0.00000000       0.00000000       5.70606061       0.00000000       0.00000000      -0.06227676
2
Properties=species:S:1:pos:R:3:forces:R:3 energy=-0.4509488849632187 pbc="F F F"
Br       0.00000000       0.00000000       0.00000000       0.00000000       0.00000000       0.04292914
Br       0.00000000       0.00000000       5.76484848       0.00000000       0.00000000      -0.04292914
2
Properties=species:S:1:pos:R:3:forces:R:3 energy=-0.44892744418286135 pbc="F F F"
Br       0.00000000       0.00000000       0.00000000       0.00000000       0.00000000       0.02649223
Br       0.00000000       0.00000000       5.82363636       0.00000000       0.00000000      -0.02649223
2
Properties=species:S:1:pos:R:3:forces:R:3 energy=-0.4477649955626001 pbc="F F F"
Br       0.00000000       0.00000000       0.00000000       0.00000000       0.00000000       0.01382924
Br       0.00000000       0.00000000       5.88242424       0.00000000       0.00000000      -0.01382924
2
Properties=species:S:1:pos:R:3:forces:R:3 energy=-0.44721296242702324 pbc="F F F"
Br       0.00000000       0.00000000       0.00000000       0.00000000       0.00000000       0.00568895
Br       0.00000000       0.00000000       5.94121212       0.00000000       0.00000000      -0.00568895
2
Properties=species:S:1:pos:R:3:forces:R:3 energy=-0.44699283467971823 pbc="F F F"
Br       0.00000000       0.00000000       0.00000000       0.00000000       0.00000000       0.00273432
Br       0.00000000       0.00000000       6.00000000       0.00000000       0.00000000      -0.00273432
