2
Properties=species:S:1:pos:R:3:forces:R:3 energy=8639.680815853648 pbc="F F F"
Cd       0.00000000       0.00000000       0.00000000       0.00000000       0.00000000 -142872.07812500
Cd       0.00000000       0.00000000       0.18000000       0.00000000       0.00000000  142872.07812500
2
Properties=species:S:1:pos:R:3:forces:R:3 energy=3557.3475639005237 pbc="F F F"
Cd       0.00000000       0.00000000       0.00000000       0.00000000       0.00000000  -49323.89453125
Cd       0.00000000       0.00000000       0.23878788       0.00000000       0.00000000   49323.89453125
2
Properties=species:S:1:pos:R:3:forces:R:3 energy=1664.7595512083788 pbc="F F F"
Cd       0.00000000       0.00000000       0.00000000       0.00000000       0.00000000  -20063.24218750
Cd       0.00000000       0.00000000       0.29757576       0.00000000       0.00000000   20063.24218750
2
Properties=species:S:1:pos:R:3:forces:R:3 energy=857.7247001373279 pbc="F F F"
Cd       0.00000000       0.00000000       0.00000000       0.00000000       0.00000000   -9029.36035156
Cd       0.00000000       0.00000000       0.35636364       0.00000000       0.00000000    9029.36035156
2
Properties=species:S:1:pos:R:3:forces:R:3 energy=482.9238273409292 pbc="F F F"
Cd       0.00000000       0.00000000       0.00000000       0.00000000       0.00000000   -4346.07714844
Cd       0.00000000       0.00000000       0.41515152       0.00000000       0.00000000    4346.07714844
2
Properties=species:S:1:pos:R:3:forces:R:3 energy=298.534148404858 pbc="F F F"
Cd       0.00000000       0.00000000       0.00000000       0.00000000       0.00000000   -2190.44116211
Cd       0.00000000       0.00000000       0.47393939       0.00000000       0.00000000    2190.44116211
2
Properties=species:S:1:pos:R:3:forces:R:3 energy=204.34081957911434 pbc="F F F"
Cd       0.00000000       0.00000000       0.00000000       0.00000000       0.00000000   -1133.27490234
Cd       0.00000000       0.00000000       0.53272727       0.00000000       0.00000000    1133.27490234
2
Properties=species:S:1:pos:R:3:forces:R:3 energy=155.507689746987 pbc="F F F"
Cd       0.00000000       0.00000000       0.00000000       0.00000000       0.00000000    -585.23040771
Cd       0.00000000       0.00000000       0.59151515       0.00000000       0.00000000     585.23040771
2
Properties=species:S:1:pos:R:3:forces:R:3 energy=130.69720399584227 pbc="F F F"
Cd       0.00000000       0.00000000       0.00000000       0.00000000       0.00000000    -288.28256226
Cd       0.00000000       0.00000000       0.65030303       0.00000000       0.00000000     288.28256226
2
Properties=species:S:1:pos:R:3:forces:R:3 energy=118.9933314545624 pbc="F F F"
Cd       0.00000000       0.00000000       0.00000000       0.00000000       0.00000000    -127.02780914
Cd       0.00000000       0.00000000       0.70909091       0.00000000       0.00000000     127.02780914
2
Properties=species:S:1:pos:R:3:forces:R:3 energy=114.106574766666 pbc="F F F"
Cd       0.00000000       0.00000000       0.00000000       0.00000000       0.00000000     -51.12690353
Cd       0.00000000       0.00000000       0.76787879       0.00000000       0.00000000      51.12690353
2
Properties=species:S:1:pos:R:3:forces:R:3 energy=111.74985510640944 pbc="F F F"
Cd       0.00000000       0.00000000       0.00000000       0.00000000       0.00000000     -38.27032089
Cd       0.00000000       0.00000000       0.82666667       0.00000000       0.00000000      38.27032089
2
Properties=species:S:1:pos:R:3:forces:R:3 energy=108.68792011876421 pbc="F F F"
Cd       0.00000000       0.00000000       0.00000000       0.00000000       0.00000000     -72.06677246
Cd       0.00000000       0.00000000       0.88545455       0.00000000       0.00000000      72.06677246
2
Properties=species:S:1:pos:R:3:forces:R:3 energy=102.79052846987595 pbc="F F F"
Cd       0.00000000       0.00000000       0.00000000       0.00000000       0.00000000    -130.52035522
Cd       0.00000000       0.00000000       0.94424242       0.00000000       0.00000000     130.52035522
2
Properties=species:S:1:pos:R:3:forces:R:3 energy=93.35431106346918 pbc="F F F"
Cd       0.00000000       0.00000000       0.00000000       0.00000000       0.00000000    -188.62547302
Cd       0.00000000       0.00000000       1.00303030       0.00000000       0.00000000     188.62547302
2
Properties=species:S:1:pos:R:3:forces:R:3 energy=80.97350624415034 pbc="F F F"
Cd       0.00000000       0.00000000       0.00000000       0.00000000       0.00000000    -228.64907837
Cd       0.00000000       0.00000000       1.06181818       0.00000000       0.00000000     228.64907837
2
Properties=species:S:1:pos:R:3:forces:R:3 energy=67.01297463528641 pbc="F F F"
Cd       0.00000000       0.00000000       0.00000000       0.00000000       0.00000000    -241.03839111
Cd       0.00000000       0.00000000       1.12060606       0.00000000       0.00000000     241.03839111
2
Properties=species:S:1:pos:R:3:forces:R:3 energy=53.25020884560197 pbc="F F F"
Cd       0.00000000       0.00000000       0.00000000       0.00000000       0.00000000    -222.88441467
Cd       0.00000000       0.00000000       1.17939394       0.00000000       0.00000000     222.88441467
2
Properties=species:S:1:pos:R:3:forces:R:3 energy=41.07832117809142 pbc="F F F"
Cd       0.00000000       0.00000000       0.00000000       0.00000000       0.00000000    -190.73013306
Cd       0.00000000       0.00000000       1.23818182       0.00000000       0.00000000     190.73013306
2
Properties=species:S:1:pos:R:3:forces:R:3 energy=30.804890806330654 pbc="F F F"
Cd       0.00000000       0.00000000       0.00000000       0.00000000       0.00000000    -158.77575684
Cd       0.00000000       0.00000000       1.29696970       0.00000000       0.00000000     158.77575684
2
Properties=species:S:1:pos:R:3:forces:R:3 energy=22.496888713906085 pbc="F F F"
Cd       0.00000000       0.00000000       0.00000000       0.00000000       0.00000000    -122.70146942
Cd       0.00000000       0.00000000       1.35575758       0.00000000       0.00000000     122.70146942
2
Properties=species:S:1:pos:R:3:forces:R:3 energy=16.419482314543878 pbc="F F F"
Cd       0.00000000       0.00000000       0.00000000       0.00000000       0.00000000     -85.09258270
Cd       0.00000000       0.00000000       1.41454545       0.00000000       0.00000000      85.09258270
2
Properties=species:S:1:pos:R:3:forces:R:3 energy=12.263044287529134 pbc="F F F"
Cd       0.00000000       0.00000000       0.00000000       0.00000000       0.00000000     -58.45462036
Cd       0.00000000       0.00000000       1.47333333       0.00000000       0.00000000      58.45462036
2
Properties=species:S:1:pos:R:3:forces:R:3 energy=9.340854035036305 pbc="F F F"
Cd       0.00000000       0.00000000       0.00000000       0.00000000       0.00000000     -42.24123383
Cd       0.00000000       0.00000000       1.53212121       0.00000000       0.00000000      42.24123383
2
Properties=species:S:1:pos:R:3:forces:R:3 energy=7.19315306144971 pbc="F F F"
Cd       0.00000000       0.00000000       0.00000000       0.00000000       0.00000000     -31.41146278
Cd       0.00000000       0.00000000       1.59090909       0.00000000       0.00000000      31.41146278
2
Properties=species:S:1:pos:R:3:forces:R:3 energy=5.59377019318911 pbc="F F F"
Cd       0.00000000       0.00000000       0.00000000       0.00000000       0.00000000     -23.39663887
Cd       0.00000000       0.00000000       1.64969697       0.00000000       0.00000000      23.39663887
2
Properties=species:S:1:pos:R:3:forces:R:3 energy=4.399008478890774 pbc="F F F"
Cd       0.00000000       0.00000000       0.00000000       0.00000000       0.00000000     -17.58805466
Cd       0.00000000       0.00000000       1.70848485       0.00000000       0.00000000      17.58805466
2
Properties=species:S:1:pos:R:3:forces:R:3 energy=3.4907303283566136 pbc="F F F"
Cd       0.00000000       0.00000000       0.00000000       0.00000000       0.00000000     -13.56740475
Cd       0.00000000       0.00000000       1.76727273       0.00000000       0.00000000      13.56740475
2
Properties=species:S:1:pos:R:3:forces:R:3 energy=2.7788533907778272 pbc="F F F"
Cd       0.00000000       0.00000000       0.00000000       0.00000000       0.00000000     -10.82338428
Cd       0.00000000       0.00000000       1.82606061       0.00000000       0.00000000      10.82338428
2
Properties=species:S:1:pos:R:3:forces:R:3 energy=2.201826259156915 pbc="F F F"
Cd       0.00000000       0.00000000       0.00000000       0.00000000       0.00000000      -8.91768837
Cd       0.00000000       0.00000000       1.88484848       0.00000000       0.00000000       8.91768837
2
Properties=species:S:1:pos:R:3:forces:R:3 energy=1.7201332496282415 pbc="F F F"
Cd       0.00000000       0.00000000       0.00000000       0.00000000       0.00000000      -7.53640890
Cd       0.00000000       0.00000000       1.94363636       0.00000000       0.00000000       7.53640890
2
Properties=species:S:1:pos:R:3:forces:R:3 energy=1.3098530898880063 pbc="F F F"
Cd       0.00000000       0.00000000       0.00000000       0.00000000       0.00000000      -6.45677042
Cd       0.00000000       0.00000000       2.00242424       0.00000000       0.00000000       6.45677042
2
Properties=species:S:1:pos:R:3:forces:R:3 energy=0.9581591396447786 pbc="F F F"
Cd       0.00000000       0.00000000       0.00000000       0.00000000       0.00000000      -5.52320099
Cd       0.00000000       0.00000000       2.06121212       0.00000000       0.00000000       5.52320099
2
Properties=species:S:1:pos:R:3:forces:R:3 energy=0.6592649009480596 pbc="F F F"
Cd       0.00000000       0.00000000       0.00000000       0.00000000       0.00000000      -4.65301132
Cd       0.00000000       0.00000000       2.12000000       0.00000000       0.00000000       4.65301132
2
Properties=species:S:1:pos:R:3:forces:R:3 energy=0.41014434804452393 pbc="F F F"
Cd       0.00000000       0.00000000       0.00000000       0.00000000       0.00000000      -3.83164930
Cd       0.00000000       0.00000000       2.17878788       0.00000000       0.00000000       3.83164930
2
Properties=species:S:1:pos:R:3:forces:R:3 energy=0.20736431588696572 pbc="F F F"
Cd       0.00000000       0.00000000       0.00000000       0.00000000       0.00000000      -3.08128619
Cd       0.00000000       0.00000000       2.23757576       0.00000000       0.00000000       3.08128619
2
Properties=species:S:1:pos:R:3:forces:R:3 energy=0.04596017800372024 pbc="F F F"
Cd       0.00000000       0.00000000       0.00000000       0.00000000       0.00000000      -2.42735696
Cd       0.00000000       0.00000000       2.29636364       0.00000000       0.00000000       2.42735696
2
Properties=species:S:1:pos:R:3:forces:R:3 energy=-0.08017632255308194 pbc="F F F"
Cd       0.00000000       0.00000000       0.00000000       0.00000000       0.00000000      -1.88226116
Cd       0.00000000       0.00000000       2.35515152       0.00000000       0.00000000       1.88226116
2
Properties=species:S:1:pos:R:3:forces:R:3 energy=-0.1774423967186889 pbc="F F F"
Cd       0.00000000       0.00000000       0.00000000       0.00000000       0.00000000      -1.44375539
Cd       0.00000000       0.00000000       2.41393939       0.00000000       0.00000000       1.44375539
2
Properties=species:S:1:pos:R:3:forces:R:3 energy=-0.25178107498423885 pbc="F F F"
Cd       0.00000000       0.00000000       0.00000000       0.00000000       0.00000000      -1.09973419
Cd       0.00000000       0.00000000       2.47272727       0.00000000       0.00000000       1.09973419
2
Properties=species:S:1:pos:R:3:forces:R:3 energy=-0.30828035263789483 pbc="F F F"
Cd       0.00000000       0.00000000       0.00000000       0.00000000       0.00000000      -0.83413553
Cd       0.00000000       0.00000000       2.53151515       0.00000000       0.00000000       0.83413553
2
Properties=species:S:1:pos:R:3:forces:R:3 energy=-0.35109038882259846 pbc="F F F"
Cd       0.00000000       0.00000000       0.00000000       0.00000000       0.00000000      -0.63167721
Cd       0.00000000       0.00000000       2.59030303       0.00000000       0.00000000       0.63167721
2
Properties=species:S:1:pos:R:3:forces:R:3 energy=-0.38354754820616976 pbc="F F F"
Cd       0.00000000       0.00000000       0.00000000       0.00000000       0.00000000      -0.48020422
Cd       0.00000000       0.00000000       2.64909091       0.00000000       0.00000000       0.48020422
2
Properties=species:S:1:pos:R:3:forces:R:3 energy=-0.40836899597122367 pbc="F F F"
Cd       0.00000000       0.00000000       0.00000000       0.00000000       0.00000000      -0.37053576
Cd       0.00000000       0.00000000       2.70787879       0.00000000       0.00000000       0.37053576
2
Properties=species:S:1:pos:R:3:forces:R:3 energy=-0.42777444833077966 pbc="F F F"
Cd       0.00000000       0.00000000       0.00000000       0.00000000       0.00000000      -0.29453573
Cd       0.00000000       0.00000000       2.76666667       0.00000000       0.00000000       0.29453573
2
Properties=species:S:1:pos:R:3:forces:R:3 energy=-0.44347399375231245 pbc="F F F"
Cd       0.00000000       0.00000000       0.00000000       0.00000000       0.00000000      -0.24265143
Cd       0.00000000       0.00000000       2.82545455       0.00000000       0.00000000       0.24265143
2
Properties=species:S:1:pos:R:3:forces:R:3 energy=-0.456538539399954 pbc="F F F"
Cd       0.00000000       0.00000000       0.00000000       0.00000000       0.00000000      -0.20271412
Cd       0.00000000       0.00000000       2.88424242       0.00000000       0.00000000       0.20271412
2
Properties=species:S:1:pos:R:3:forces:R:3 energy=-0.46730563378190465 pbc="F F F"
Cd       0.00000000       0.00000000       0.00000000       0.00000000       0.00000000      -0.16290404
Cd       0.00000000       0.00000000       2.94303030       0.00000000       0.00000000       0.16290404
2
Properties=species:S:1:pos:R:3:forces:R:3 energy=-0.47559725135150654 pbc="F F F"
Cd       0.00000000       0.00000000       0.00000000       0.00000000       0.00000000      -0.11856983
Cd       0.00000000       0.00000000       3.00181818       0.00000000       0.00000000       0.11856983
2
Properties=species:S:1:pos:R:3:forces:R:3 energy=-0.48122650760182356 pbc="F F F"
Cd       0.00000000       0.00000000       0.00000000       0.00000000       0.00000000      -0.07319432
Cd       0.00000000       0.00000000       3.06060606       0.00000000       0.00000000       0.07319432
2
Properties=species:S:1:pos:R:3:forces:R:3 energy=-0.48426096834665094 pbc="F F F"
Cd       0.00000000       0.00000000       0.00000000       0.00000000       0.00000000      -0.03061942
Cd       0.00000000       0.00000000       3.11939394       0.00000000       0.00000000       0.03061942
2
Properties=species:S:1:pos:R:3:forces:R:3 energy=-0.4848885000658607 pbc="F F F"
Cd       0.00000000       0.00000000       0.00000000       0.00000000       0.00000000       0.00881114
Cd       0.00000000       0.00000000       3.17818182       0.00000000       0.00000000      -0.00881114
2
Properties=species:S:1:pos:R:3:forces:R:3 energy=-0.4832710395672861 pbc="F F F"
Cd       0.00000000       0.00000000       0.00000000       0.00000000       0.00000000       0.04585260
Cd       0.00000000       0.00000000       3.23696970       0.00000000       0.00000000      -0.04585260
2
Properties=species:S:1:pos:R:3:forces:R:3 energy=-0.4795430008915984 pbc="F F F"
Cd       0.00000000       0.00000000       0.00000000       0.00000000       0.00000000       0.08055565
Cd       0.00000000       0.00000000       3.29575758       0.00000000       0.00000000      -0.08055565
2
Properties=species:S:1:pos:R:3:forces:R:3 energy=-0.47385533794691165 pbc="F F F"
Cd       0.00000000       0.00000000       0.00000000       0.00000000       0.00000000       0.11241564
Cd       0.00000000       0.00000000       3.35454545       0.00000000       0.00000000      -0.11241564
2
Properties=species:S:1:pos:R:3:forces:R:3 energy=-0.4663927746525178 pbc="F F F"
Cd       0.00000000       0.00000000       0.00000000       0.00000000       0.00000000       0.14084904
Cd       0.00000000       0.00000000       3.41333333       0.00000000       0.00000000      -0.14084904
2
Properties=species:S:1:pos:R:3:forces:R:3 energy=-0.45737335407086416 pbc="F F F"
Cd       0.00000000       0.00000000       0.00000000       0.00000000       0.00000000       0.16527826
Cd       0.00000000       0.00000000       3.47212121       0.00000000       0.00000000      -0.16527826
2
Properties=species:S:1:pos:R:3:forces:R:3 energy=-0.4470526918890219 pbc="F F F"
Cd       0.00000000       0.00000000       0.00000000       0.00000000       0.00000000       0.18497546
Cd       0.00000000       0.00000000       3.53090909       0.00000000       0.00000000      -0.18497546
2
Properties=species:S:1:pos:R:3:forces:R:3 energy=-0.4357364274701347 pbc="F F F"
Cd       0.00000000       0.00000000       0.00000000       0.00000000       0.00000000       0.19896121
Cd       0.00000000       0.00000000       3.58969697       0.00000000       0.00000000      -0.19896121
2
Properties=species:S:1:pos:R:3:forces:R:3 energy=-0.42379325343203306 pbc="F F F"
Cd       0.00000000       0.00000000       0.00000000       0.00000000       0.00000000       0.20613877
Cd       0.00000000       0.00000000       3.64848485       0.00000000       0.00000000      -0.20613877
2
Properties=species:S:1:pos:R:3:forces:R:3 energy=-0.411650626448715 pbc="F F F"
Cd       0.00000000       0.00000000       0.00000000       0.00000000       0.00000000       0.20564072
Cd       0.00000000       0.00000000       3.70727273       0.00000000       0.00000000      -0.20564072
2
Properties=species:S:1:pos:R:3:forces:R:3 energy=-0.3997709290202626 pbc="F F F"
Cd       0.00000000       0.00000000       0.00000000       0.00000000       0.00000000       0.19720083
Cd       0.00000000       0.00000000       3.76606061       0.00000000       0.00000000      -0.19720083
2
Properties=species:S:1:pos:R:3:forces:R:3 energy=-0.38860958653846944 pbc="F F F"
Cd       0.00000000       0.00000000       0.00000000       0.00000000       0.00000000       0.18137725
Cd       0.00000000       0.00000000       3.82484848       0.00000000       0.00000000      -0.18137725
2
Properties=species:S:1:pos:R:3:forces:R:3 energy=-0.3785639636835705 pbc="F F F"
Cd       0.00000000       0.00000000       0.00000000       0.00000000       0.00000000       0.15952124
Cd       0.00000000       0.00000000       3.88363636       0.00000000       0.00000000      -0.15952124
2
Properties=species:S:1:pos:R:3:forces:R:3 energy=-0.3699346412439892 pbc="F F F"
Cd       0.00000000       0.00000000       0.00000000       0.00000000       0.00000000       0.13354488
Cd       0.00000000       0.00000000       3.94242424       0.00000000       0.00000000      -0.13354488
2
Properties=species:S:1:pos:R:3:forces:R:3 energy=-0.3629013275043341 pbc="F F F"
Cd       0.00000000       0.00000000       0.00000000       0.00000000       0.00000000       0.10558540
Cd       0.00000000       0.00000000       4.00121212       0.00000000       0.00000000      -0.10558540
2
Properties=species:S:1:pos:R:3:forces:R:3 energy=-0.35751869942347075 pbc="F F F"
Cd       0.00000000       0.00000000       0.00000000       0.00000000       0.00000000       0.07770073
Cd       0.00000000       0.00000000       4.06000000       0.00000000       0.00000000      -0.07770073
2
Properties=species:S:1:pos:R:3:forces:R:3 energy=-0.3537290836287295 pbc="F F F"
Cd       0.00000000       0.00000000       0.00000000       0.00000000       0.00000000       0.05166094
Cd       0.00000000       0.00000000       4.11878788       0.00000000       0.00000000      -0.05166094
2
Properties=species:S:1:pos:R:3:forces:R:3 energy=-0.3513814287798667 pbc="F F F"
Cd       0.00000000       0.00000000       0.00000000       0.00000000       0.00000000       0.02883604
Cd       0.00000000       0.00000000       4.17757576       0.00000000       0.00000000      -0.02883604
2
Properties=species:S:1:pos:R:3:forces:R:3 energy=-0.3502568543708945 pbc="F F F"
Cd       0.00000000       0.00000000       0.00000000       0.00000000       0.00000000       0.01016562
Cd       0.00000000       0.00000000       4.23636364       0.00000000       0.00000000      -0.01016562
2
Properties=species:S:1:pos:R:3:forces:R:3 energy=-0.35009432461683904 pbc="F F F"
Cd       0.00000000       0.00000000       0.00000000       0.00000000       0.00000000      -0.00383354
Cd       0.00000000       0.00000000       4.29515152       0.00000000       0.00000000       0.00383354
2
Properties=species:S:1:pos:R:3:forces:R:3 energy=-0.3506134079245785 pbc="F F F"
Cd       0.00000000       0.00000000       0.00000000       0.00000000       0.00000000      -0.01304139
Cd       0.00000000       0.00000000       4.35393939       0.00000000       0.00000000       0.01304139
2
Properties=species:S:1:pos:R:3:forces:R:3 energy=-0.35153837584023107 pbc="F F F"
Cd       0.00000000       0.00000000       0.00000000       0.00000000       0.00000000      -0.01770397
Cd       0.00000000       0.00000000       4.41272727       0.00000000       0.00000000       0.01770397
2
Properties=species:S:1:pos:R:3:forces:R:3 energy=-0.35261699435136973 pbc="F F F"
Cd       0.00000000       0.00000000       0.00000000       0.00000000       0.00000000      -0.01838897
Cd       0.00000000       0.00000000       4.47151515       0.00000000       0.00000000       0.01838897
2
Properties=species:S:1:pos:R:3:forces:R:3 energy=-0.35363880867372793 pbc="F F F"
Cd       0.00000000       0.00000000       0.00000000       0.00000000       0.00000000      -0.01592897
Cd       0.00000000       0.00000000       4.53030303       0.00000000       0.00000000       0.01592897
2
Properties=species:S:1:pos:R:3:forces:R:3 energy=-0.3544479818404753 pbc="F F F"
Cd       0.00000000       0.00000000       0.00000000       0.00000000       0.00000000      -0.01133694
Cd       0.00000000       0.00000000       4.58909091       0.00000000       0.00000000       0.01133694
2
Properties=species:S:1:pos:R:3:forces:R:3 energy=-0.35495109094734156 pbc="F F F"
Cd       0.00000000       0.00000000       0.00000000       0.00000000       0.00000000      -0.00569396
Cd       0.00000000       0.00000000       4.64787879       0.00000000       0.00000000       0.00569396
2
Properties=species:S:1:pos:R:3:forces:R:3 energy=-0.35511697814100457 pbc="F F F"
Cd       0.00000000       0.00000000       0.00000000       0.00000000       0.00000000      -0.00001814
Cd       0.00000000       0.00000000       4.70666667       0.00000000       0.00000000       0.00001814
2
Properties=species:S:1:pos:R:3:forces:R:3 energy=-0.35496903510938516 pbc="F F F"
Cd       0.00000000       0.00000000       0.00000000       0.00000000       0.00000000       0.00486166
Cd       0.00000000       0.00000000       4.76545455       0.00000000       0.00000000      -0.00486166
2
Properties=species:S:1:pos:R:3:forces:R:3 energy=-0.35457170133768245 pbc="F F F"
Cd       0.00000000       0.00000000       0.00000000       0.00000000       0.00000000       0.00840774
Cd       0.00000000       0.00000000       4.82424242       0.00000000       0.00000000      -0.00840774
2
Properties=species:S:1:pos:R:3:forces:R:3 energy=-0.35401086022389894 pbc="F F F"
Cd       0.00000000       0.00000000       0.00000000       0.00000000       0.00000000       0.01041425
Cd       0.00000000       0.00000000       4.88303030       0.00000000       0.00000000      -0.01041425
2
Properties=species:S:1:pos:R:3:forces:R:3 energy=-0.35337548976774 pbc="F F F"
Cd       0.00000000       0.00000000       0.00000000       0.00000000       0.00000000       0.01098581
Cd       0.00000000       0.00000000       4.94181818       0.00000000       0.00000000      -0.01098581
2
Properties=species:S:1:pos:R:3:forces:R:3 energy=-0.3527408923666414 pbc="F F F"
Cd       0.00000000       0.00000000       0.00000000       0.00000000       0.00000000       0.01045649
Cd       0.00000000       0.00000000       5.00060606       0.00000000       0.00000000      -0.01045649
2
Properties=species:S:1:pos:R:3:forces:R:3 energy=-0.3521587994448011 pbc="F F F"
Cd       0.00000000       0.00000000       0.00000000       0.00000000       0.00000000       0.00927853
Cd       0.00000000       0.00000000       5.05939394       0.00000000       0.00000000      -0.00927853
2
Properties=species:S:1:pos:R:3:forces:R:3 energy=-0.35165369438816024 pbc="F F F"
Cd       0.00000000       0.00000000       0.00000000       0.00000000       0.00000000       0.00790804
Cd       0.00000000       0.00000000       5.11818182       0.00000000       0.00000000      -0.00790804
2
Properties=species:S:1:pos:R:3:forces:R:3 energy=-0.35122538750747007 pbc="F F F"
Cd       0.00000000       0.00000000       0.00000000       0.00000000       0.00000000       0.00671521
Cd       0.00000000       0.00000000       5.17696970       0.00000000       0.00000000      -0.00671521
2
Properties=species:S:1:pos:R:3:forces:R:3 energy=-0.35085594155645133 pbc="F F F"
Cd       0.00000000       0.00000000       0.00000000       0.00000000       0.00000000       0.00593239
Cd       0.00000000       0.00000000       5.23575758       0.00000000       0.00000000      -0.00593239
2
Properties=species:S:1:pos:R:3:forces:R:3 energy=-0.35051807023503956 pbc="F F F"
Cd       0.00000000       0.00000000       0.00000000       0.00000000       0.00000000       0.00564232
Cd       0.00000000       0.00000000       5.29454545       0.00000000       0.00000000      -0.00564232
2
Properties=species:S:1:pos:R:3:forces:R:3 energy=-0.3501837265939416 pbc="F F F"
Cd       0.00000000       0.00000000       0.00000000       0.00000000       0.00000000       0.00580050
Cd       0.00000000       0.00000000       5.35333333       0.00000000       0.00000000      -0.00580050
2
Properties=species:S:1:pos:R:3:forces:R:3 energy=-0.34982989418864563 pbc="F F F"
Cd       0.00000000       0.00000000       0.00000000       0.00000000       0.00000000       0.00627879
Cd       0.00000000       0.00000000       5.41212121       0.00000000       0.00000000      -0.00627879
2
Properties=species:S:1:pos:R:3:forces:R:3 energy=-0.34944238076988365 pbc="F F F"
Cd       0.00000000       0.00000000       0.00000000       0.00000000       0.00000000       0.00691752
Cd       0.00000000       0.00000000       5.47090909       0.00000000       0.00000000      -0.00691752
2
Properties=species:S:1:pos:R:3:forces:R:3 energy=-0.34901634472200055 pbc="F F F"
Cd       0.00000000       0.00000000       0.00000000       0.00000000       0.00000000       0.00756838
Cd       0.00000000       0.00000000       5.52969697       0.00000000       0.00000000      -0.00756838
2
Properties=species:S:1:pos:R:3:forces:R:3 energy=-0.34855439038217584 pbc="F F F"
Cd       0.00000000       0.00000000       0.00000000       0.00000000       0.00000000       0.00812477
Cd       0.00000000       0.00000000       5.58848485       0.00000000       0.00000000      -0.00812477
2
Properties=species:S:1:pos:R:3:forces:R:3 energy=-0.34806405285001873 pbc="F F F"
Cd       0.00000000       0.00000000       0.00000000       0.00000000       0.00000000       0.00852912
Cd       0.00000000       0.00000000       5.64727273       0.00000000       0.00000000      -0.00852912
2
Properties=species:S:1:pos:R:3:forces:R:3 energy=-0.3475547987483962 pbc="F F F"
Cd       0.00000000       0.00000000       0.00000000       0.00000000       0.00000000       0.00876771
Cd       0.00000000       0.00000000       5.70606061       0.00000000       0.00000000      -0.00876771
2
Properties=species:S:1:pos:R:3:forces:R:3 energy=-0.3470362863933778 pbc="F F F"
Cd       0.00000000       0.00000000       0.00000000       0.00000000       0.00000000       0.00885454
Cd       0.00000000       0.00000000       5.76484848       0.00000000       0.00000000      -0.00885454
2
Properties=species:S:1:pos:R:3:forces:R:3 energy=-0.3465163640789227 pbc="F F F"
Cd       0.00000000       0.00000000       0.00000000       0.00000000       0.00000000       0.00881088
Cd       0.00000000       0.00000000       5.82363636       0.00000000       0.00000000      -0.00881088
2
Properties=species:S:1:pos:R:3:forces:R:3 energy=-0.34600243752389953 pbc="F F F"
Cd       0.00000000       0.00000000       0.00000000       0.00000000       0.00000000       0.00865219
Cd       0.00000000       0.00000000       5.88242424       0.00000000       0.00000000      -0.00865219
2
Properties=species:S:1:pos:R:3:forces:R:3 energy=-0.3455013103570728 pbc="F F F"
Cd       0.00000000       0.00000000       0.00000000       0.00000000       0.00000000       0.00837805
Cd       0.00000000       0.00000000       5.94121212       0.00000000       0.00000000      -0.00837805
2
Properties=species:S:1:pos:R:3:forces:R:3 energy=-0.3450200312534185 pbc="F F F"
Cd       0.00000000       0.00000000       0.00000000       0.00000000       0.00000000       0.00797041
Cd       0.00000000       0.00000000       6.00000000       0.00000000       0.00000000      -0.00797041
