2
Properties=species:S:1:pos:R:3:forces:R:3 energy=3793.9513975609234 pbc="F F F"
Co       0.00000000       0.00000000       0.00000000       0.00000000       0.00000000  -58764.37109375
Co       0.00000000       0.00000000       0.18000000       0.00000000       0.00000000   58764.37109375
2
Properties=species:S:1:pos:R:3:forces:R:3 energy=1656.1979795921736 pbc="F F F"
Co       0.00000000       0.00000000       0.00000000       0.00000000       0.00000000  -21382.32812500
Co       0.00000000       0.00000000       0.23878788       0.00000000       0.00000000   21382.32812500
2
Properties=species:S:1:pos:R:3:forces:R:3 energy=817.9120298883101 pbc="F F F"
Co       0.00000000       0.00000000       0.00000000       0.00000000       0.00000000   -9148.10839844
Co       0.00000000       0.00000000       0.29757576       0.00000000       0.00000000    9148.10839844
2
Properties=species:S:1:pos:R:3:forces:R:3 energy=441.57642808166946 pbc="F F F"
Co       0.00000000       0.00000000       0.00000000       0.00000000       0.00000000   -4334.23144531
Co       0.00000000       0.00000000       0.35636364       0.00000000       0.00000000    4334.23144531
2
Properties=species:S:1:pos:R:3:forces:R:3 energy=257.75288072472387 pbc="F F F"
Co       0.00000000       0.00000000       0.00000000       0.00000000       0.00000000   -2186.83593750
Co       0.00000000       0.00000000       0.41515152       0.00000000       0.00000000    2186.83593750
2
Properties=species:S:1:pos:R:3:forces:R:3 energy=163.49023120126236 pbc="F F F"
Co       0.00000000       0.00000000       0.00000000       0.00000000       0.00000000   -1137.13891602
Co       0.00000000       0.00000000       0.47393939       0.00000000       0.00000000    1137.13891602
2
Properties=species:S:1:pos:R:3:forces:R:3 energy=114.48186178080415 pbc="F F F"
Co       0.00000000       0.00000000       0.00000000       0.00000000       0.00000000    -586.23272705
Co       0.00000000       0.00000000       0.53272727       0.00000000       0.00000000     586.23272705
2
Properties=species:S:1:pos:R:3:forces:R:3 energy=89.76520227291958 pbc="F F F"
Co       0.00000000       0.00000000       0.00000000       0.00000000       0.00000000    -284.50057983
Co       0.00000000       0.00000000       0.59151515       0.00000000       0.00000000     284.50057983
2
Properties=species:S:1:pos:R:3:forces:R:3 energy=78.21880036507261 pbc="F F F"
Co       0.00000000       0.00000000       0.00000000       0.00000000       0.00000000    -131.00318909
Co       0.00000000       0.00000000       0.65030303       0.00000000       0.00000000     131.00318909
2
Properties=species:S:1:pos:R:3:forces:R:3 energy=73.05358593103652 pbc="F F F"
Co       0.00000000       0.00000000       0.00000000       0.00000000       0.00000000     -28.90621376
Co       0.00000000       0.00000000       0.70909091       0.00000000       0.00000000      28.90621376
2
Properties=species:S:1:pos:R:3:forces:R:3 energy=71.9373370081228 pbc="F F F"
Co       0.00000000       0.00000000       0.00000000       0.00000000       0.00000000     -42.55456543
Co       0.00000000       0.00000000       0.76787879       0.00000000       0.00000000      42.55456543
2
Properties=species:S:1:pos:R:3:forces:R:3 energy=67.16210683799461 pbc="F F F"
Co       0.00000000       0.00000000       0.00000000       0.00000000       0.00000000    -129.59396362
Co       0.00000000       0.00000000       0.82666667       0.00000000       0.00000000     129.59396362
2
Properties=species:S:1:pos:R:3:forces:R:3 energy=54.87666482782448 pbc="F F F"
Co       0.00000000       0.00000000       0.00000000       0.00000000       0.00000000    -246.08583069
Co       0.00000000       0.00000000       0.88545455       0.00000000       0.00000000     246.08583069
2
Properties=species:S:1:pos:R:3:forces:R:3 energy=40.76825923927109 pbc="F F F"
Co       0.00000000       0.00000000       0.00000000       0.00000000       0.00000000    -226.23194885
Co       0.00000000       0.00000000       0.94424242       0.00000000       0.00000000     226.23194885
2
Properties=species:S:1:pos:R:3:forces:R:3 energy=28.352133646957395 pbc="F F F"
Co       0.00000000       0.00000000       0.00000000       0.00000000       0.00000000    -192.09069824
Co       0.00000000       0.00000000       1.00303030       0.00000000       0.00000000     192.09069824
2
Properties=species:S:1:pos:R:3:forces:R:3 energy=18.489997693127282 pbc="F F F"
Co       0.00000000       0.00000000       0.00000000       0.00000000       0.00000000    -143.36045837
Co       0.00000000       0.00000000       1.06181818       0.00000000       0.00000000     143.36045837
2
Properties=species:S:1:pos:R:3:forces:R:3 energy=11.370115334264643 pbc="F F F"
Co       0.00000000       0.00000000       0.00000000       0.00000000       0.00000000    -102.82305908
Co       0.00000000       0.00000000       1.12060606       0.00000000       0.00000000     102.82305908
2
Properties=species:S:1:pos:R:3:forces:R:3 energy=5.929394411478892 pbc="F F F"
Co       0.00000000       0.00000000       0.00000000       0.00000000       0.00000000     -83.99744415
Co       0.00000000       0.00000000       1.17939394       0.00000000       0.00000000      83.99744415
2
Properties=species:S:1:pos:R:3:forces:R:3 energy=1.6263401671250581 pbc="F F F"
Co       0.00000000       0.00000000       0.00000000       0.00000000       0.00000000     -59.91594315
Co       0.00000000       0.00000000       1.23818182       0.00000000       0.00000000      59.91594315
2
Properties=species:S:1:pos:R:3:forces:R:3 energy=-1.0762024456259156 pbc="F F F"
Co       0.00000000       0.00000000       0.00000000       0.00000000       0.00000000     -34.30549240
Co       0.00000000       0.00000000       1.29696970       0.00000000       0.00000000      34.30549240
2
Properties=species:S:1:pos:R:3:forces:R:3 energy=-2.6951310006111426 pbc="F F F"
Co       0.00000000       0.00000000       0.00000000       0.00000000       0.00000000     -22.28332710
Co       0.00000000       0.00000000       1.35575758       0.00000000       0.00000000      22.28332710
2
Properties=species:S:1:pos:R:3:forces:R:3 energy=-3.7802059385093143 pbc="F F F"
Co       0.00000000       0.00000000       0.00000000       0.00000000       0.00000000     -14.97401524
Co       0.00000000       0.00000000       1.41454545       0.00000000       0.00000000      14.97401524
2
Properties=species:S:1:pos:R:3:forces:R:3 energy=-4.493285468682862 pbc="F F F"
Co       0.00000000       0.00000000       0.00000000       0.00000000       0.00000000      -9.63129139
Co       0.00000000       0.00000000       1.47333333       0.00000000       0.00000000       9.63129139
2
Properties=species:S:1:pos:R:3:forces:R:3 energy=-4.95266829043689 pbc="F F F"
Co       0.00000000       0.00000000       0.00000000       0.00000000       0.00000000      -6.30247021
Co       0.00000000       0.00000000       1.53212121       0.00000000       0.00000000       6.30247021
2
Properties=species:S:1:pos:R:3:forces:R:3 energy=-5.263402885172885 pbc="F F F"
Co       0.00000000       0.00000000       0.00000000       0.00000000       0.00000000      -4.45642042
Co       0.00000000       0.00000000       1.59090909       0.00000000       0.00000000       4.45642042
2
Properties=species:S:1:pos:R:3:forces:R:3 energy=-5.492307895676771 pbc="F F F"
Co       0.00000000       0.00000000       0.00000000       0.00000000       0.00000000      -3.41685677
Co       0.00000000       0.00000000       1.64969697       0.00000000       0.00000000       3.41685677
2
Properties=species:S:1:pos:R:3:forces:R:3 energy=-5.671110276156321 pbc="F F F"
Co       0.00000000       0.00000000       0.00000000       0.00000000       0.00000000      -2.69081354
Co       0.00000000       0.00000000       1.70848485       0.00000000       0.00000000       2.69081354
2
Properties=species:S:1:pos:R:3:forces:R:3 energy=-5.809997199018425 pbc="F F F"
Co       0.00000000       0.00000000       0.00000000       0.00000000       0.00000000      -2.03879905
Co       0.00000000       0.00000000       1.76727273       0.00000000       0.00000000       2.03879905
2
Properties=species:S:1:pos:R:3:forces:R:3 energy=-5.911330441076239 pbc="F F F"
Co       0.00000000       0.00000000       0.00000000       0.00000000       0.00000000      -1.41453278
Co       0.00000000       0.00000000       1.82606061       0.00000000       0.00000000       1.41453278
2
Properties=species:S:1:pos:R:3:forces:R:3 energy=-5.977214666576742 pbc="F F F"
Co       0.00000000       0.00000000       0.00000000       0.00000000       0.00000000      -0.83542567
Co       0.00000000       0.00000000       1.88484848       0.00000000       0.00000000       0.83542567
2
Properties=species:S:1:pos:R:3:forces:R:3 energy=-6.010535498046783 pbc="F F F"
Co       0.00000000       0.00000000       0.00000000       0.00000000       0.00000000      -0.30589470
Co       0.00000000       0.00000000       1.94363636       0.00000000       0.00000000       0.30589470
2
Properties=species:S:1:pos:R:3:forces:R:3 energy=-6.014042248696013 pbc="F F F"
Co       0.00000000       0.00000000       0.00000000       0.00000000       0.00000000       0.17916325
Co       0.00000000       0.00000000       2.00242424       0.00000000       0.00000000      -0.17916325
2
Properties=species:S:1:pos:R:3:forces:R:3 energy=-5.990466700947969 pbc="F F F"
Co       0.00000000       0.00000000       0.00000000       0.00000000       0.00000000       0.61285299
Co       0.00000000       0.00000000       2.06121212       0.00000000       0.00000000      -0.61285299
2
Properties=species:S:1:pos:R:3:forces:R:3 energy=-5.94341941336421 pbc="F F F"
Co       0.00000000       0.00000000       0.00000000       0.00000000       0.00000000       0.97307634
Co       0.00000000       0.00000000       2.12000000       0.00000000       0.00000000      -0.97307634
2
Properties=species:S:1:pos:R:3:forces:R:3 energy=-5.878100449505424 pbc="F F F"
Co       0.00000000       0.00000000       0.00000000       0.00000000       0.00000000       1.22895432
Co       0.00000000       0.00000000       2.17878788       0.00000000       0.00000000      -1.22895432
2
Properties=species:S:1:pos:R:3:forces:R:3 energy=-5.801572045760958 pbc="F F F"
Co       0.00000000       0.00000000       0.00000000       0.00000000       0.00000000       1.35023463
Co       0.00000000       0.00000000       2.23757576       0.00000000       0.00000000      -1.35023463
2
Properties=species:S:1:pos:R:3:forces:R:3 energy=-5.722282371040932 pbc="F F F"
Co       0.00000000       0.00000000       0.00000000       0.00000000       0.00000000       1.32278669
Co       0.00000000       0.00000000       2.29636364       0.00000000       0.00000000      -1.32278669
2
Properties=species:S:1:pos:R:3:forces:R:3 energy=-5.648608517616265 pbc="F F F"
Co       0.00000000       0.00000000       0.00000000       0.00000000       0.00000000       1.16618001
Co       0.00000000       0.00000000       2.35515152       0.00000000       0.00000000      -1.16618001
2
Properties=species:S:1:pos:R:3:forces:R:3 energy=-5.586340559618979 pbc="F F F"
Co       0.00000000       0.00000000       0.00000000       0.00000000       0.00000000       0.95237780
Co       0.00000000       0.00000000       2.41393939       0.00000000       0.00000000      -0.95237780
2
Properties=species:S:1:pos:R:3:forces:R:3 energy=-5.5351151054864145 pbc="F F F"
Co       0.00000000       0.00000000       0.00000000       0.00000000       0.00000000       0.81462592
Co       0.00000000       0.00000000       2.47272727       0.00000000       0.00000000      -0.81462592
2
Properties=species:S:1:pos:R:3:forces:R:3 energy=-5.487341640839981 pbc="F F F"
Co       0.00000000       0.00000000       0.00000000       0.00000000       0.00000000       0.83447754
Co       0.00000000       0.00000000       2.53151515       0.00000000       0.00000000      -0.83447754
2
Properties=species:S:1:pos:R:3:forces:R:3 energy=-5.435059078522779 pbc="F F F"
Co       0.00000000       0.00000000       0.00000000       0.00000000       0.00000000       0.95498592
Co       0.00000000       0.00000000       2.59030303       0.00000000       0.00000000      -0.95498592
2
Properties=species:S:1:pos:R:3:forces:R:3 energy=-5.374108749110126 pbc="F F F"
Co       0.00000000       0.00000000       0.00000000       0.00000000       0.00000000       1.12480831
Co       0.00000000       0.00000000       2.64909091       0.00000000       0.00000000      -1.12480831
2
Properties=species:S:1:pos:R:3:forces:R:3 energy=-5.302321631915847 pbc="F F F"
Co       0.00000000       0.00000000       0.00000000       0.00000000       0.00000000       1.31888294
Co       0.00000000       0.00000000       2.70787879       0.00000000       0.00000000      -1.31888294
2
Properties=species:S:1:pos:R:3:forces:R:3 energy=-5.219256944120031 pbc="F F F"
Co       0.00000000       0.00000000       0.00000000       0.00000000       0.00000000       1.50182235
Co       0.00000000       0.00000000       2.76666667       0.00000000       0.00000000      -1.50182235
2
Properties=species:S:1:pos:R:3:forces:R:3 energy=-5.126697521527197 pbc="F F F"
Co       0.00000000       0.00000000       0.00000000       0.00000000       0.00000000       1.63657618
Co       0.00000000       0.00000000       2.82545455       0.00000000       0.00000000      -1.63657618
2
Properties=species:S:1:pos:R:3:forces:R:3 energy=-5.028255062279467 pbc="F F F"
Co       0.00000000       0.00000000       0.00000000       0.00000000       0.00000000       1.69956779
Co       0.00000000       0.00000000       2.88424242       0.00000000       0.00000000      -1.69956779
2
Properties=species:S:1:pos:R:3:forces:R:3 energy=-4.928370105855269 pbc="F F F"
Co       0.00000000       0.00000000       0.00000000       0.00000000       0.00000000       1.68654013
Co       0.00000000       0.00000000       2.94303030       0.00000000       0.00000000      -1.68654013
2
Properties=species:S:1:pos:R:3:forces:R:3 energy=-4.831207696135086 pbc="F F F"
Co       0.00000000       0.00000000       0.00000000       0.00000000       0.00000000       1.61009777
Co       0.00000000       0.00000000       3.00181818       0.00000000       0.00000000      -1.61009777
2
Properties=species:S:1:pos:R:3:forces:R:3 energy=-4.739868100264533 pbc="F F F"
Co       0.00000000       0.00000000       0.00000000       0.00000000       0.00000000       1.49254858
Co       0.00000000       0.00000000       3.06060606       0.00000000       0.00000000      -1.49254858
2
Properties=species:S:1:pos:R:3:forces:R:3 energy=-4.656055740635016 pbc="F F F"
Co       0.00000000       0.00000000       0.00000000       0.00000000       0.00000000       1.35776222
Co       0.00000000       0.00000000       3.11939394       0.00000000       0.00000000      -1.35776222
2
Properties=species:S:1:pos:R:3:forces:R:3 energy=-4.580182977329801 pbc="F F F"
Co       0.00000000       0.00000000       0.00000000       0.00000000       0.00000000       1.22501278
Co       0.00000000       0.00000000       3.17818182       0.00000000       0.00000000      -1.22501278
2
Properties=species:S:1:pos:R:3:forces:R:3 energy=-4.511745797120038 pbc="F F F"
Co       0.00000000       0.00000000       0.00000000       0.00000000       0.00000000       1.10616803
Co       0.00000000       0.00000000       3.23696970       0.00000000       0.00000000      -1.10616803
2
Properties=species:S:1:pos:R:3:forces:R:3 energy=-4.449759222811003 pbc="F F F"
Co       0.00000000       0.00000000       0.00000000       0.00000000       0.00000000       1.00581503
Co       0.00000000       0.00000000       3.29575758       0.00000000       0.00000000      -1.00581503
2
Properties=species:S:1:pos:R:3:forces:R:3 energy=-4.39313848352954 pbc="F F F"
Co       0.00000000       0.00000000       0.00000000       0.00000000       0.00000000       0.92311633
Co       0.00000000       0.00000000       3.35454545       0.00000000       0.00000000      -0.92311633
2
Properties=species:S:1:pos:R:3:forces:R:3 energy=-4.340953346327429 pbc="F F F"
Co       0.00000000       0.00000000       0.00000000       0.00000000       0.00000000       0.85412157
Co       0.00000000       0.00000000       3.41333333       0.00000000       0.00000000      -0.85412157
2
Properties=species:S:1:pos:R:3:forces:R:3 energy=-4.2925444200984675 pbc="F F F"
Co       0.00000000       0.00000000       0.00000000       0.00000000       0.00000000       0.79381764
Co       0.00000000       0.00000000       3.47212121       0.00000000       0.00000000      -0.79381764
2
Properties=species:S:1:pos:R:3:forces:R:3 energy=-4.247540015941413 pbc="F F F"
Co       0.00000000       0.00000000       0.00000000       0.00000000       0.00000000       0.73764259
Co       0.00000000       0.00000000       3.53090909       0.00000000       0.00000000      -0.73764259
2
Properties=species:S:1:pos:R:3:forces:R:3 energy=-4.205798036383122 pbc="F F F"
Co       0.00000000       0.00000000       0.00000000       0.00000000       0.00000000       0.68241948
Co       0.00000000       0.00000000       3.58969697       0.00000000       0.00000000      -0.68241948
2
Properties=species:S:1:pos:R:3:forces:R:3 energy=-4.167314059848612 pbc="F F F"
Co       0.00000000       0.00000000       0.00000000       0.00000000       0.00000000       0.62672204
Co       0.00000000       0.00000000       3.64848485       0.00000000       0.00000000      -0.62672204
2
Properties=species:S:1:pos:R:3:forces:R:3 energy=-4.132118343834892 pbc="F F F"
Co       0.00000000       0.00000000       0.00000000       0.00000000       0.00000000       0.57069373
Co       0.00000000       0.00000000       3.70727273       0.00000000       0.00000000      -0.57069373
2
Properties=species:S:1:pos:R:3:forces:R:3 energy=-4.100198678661642 pbc="F F F"
Co       0.00000000       0.00000000       0.00000000       0.00000000       0.00000000       0.51547277
Co       0.00000000       0.00000000       3.76606061       0.00000000       0.00000000      -0.51547277
2
Properties=species:S:1:pos:R:3:forces:R:3 energy=-4.071467536392451 pbc="F F F"
Co       0.00000000       0.00000000       0.00000000       0.00000000       0.00000000       0.46245977
Co       0.00000000       0.00000000       3.82484848       0.00000000       0.00000000      -0.46245977
2
Properties=species:S:1:pos:R:3:forces:R:3 energy=-4.045760965105037 pbc="F F F"
Co       0.00000000       0.00000000       0.00000000       0.00000000       0.00000000       0.41266471
Co       0.00000000       0.00000000       3.88363636       0.00000000       0.00000000      -0.41266471
2
Properties=species:S:1:pos:R:3:forces:R:3 energy=-4.022878337437776 pbc="F F F"
Co       0.00000000       0.00000000       0.00000000       0.00000000       0.00000000       0.36639234
Co       0.00000000       0.00000000       3.94242424       0.00000000       0.00000000      -0.36639234
2
Properties=species:S:1:pos:R:3:forces:R:3 energy=-4.002621280174274 pbc="F F F"
Co       0.00000000       0.00000000       0.00000000       0.00000000       0.00000000       0.32324156
Co       0.00000000       0.00000000       4.00121212       0.00000000       0.00000000      -0.32324156
2
Properties=species:S:1:pos:R:3:forces:R:3 energy=-3.984828375649971 pbc="F F F"
Co       0.00000000       0.00000000       0.00000000       0.00000000       0.00000000       0.28237861
Co       0.00000000       0.00000000       4.06000000       0.00000000       0.00000000      -0.28237861
2
Properties=species:S:1:pos:R:3:forces:R:3 energy=-3.969392315218536 pbc="F F F"
Co       0.00000000       0.00000000       0.00000000       0.00000000       0.00000000       0.24294405
Co       0.00000000       0.00000000       4.11878788       0.00000000       0.00000000      -0.24294405
2
Properties=species:S:1:pos:R:3:forces:R:3 energy=-3.956247015977059 pbc="F F F"
Co       0.00000000       0.00000000       0.00000000       0.00000000       0.00000000       0.20440191
Co       0.00000000       0.00000000       4.17757576       0.00000000       0.00000000      -0.20440191
2
Properties=species:S:1:pos:R:3:forces:R:3 energy=-3.945342027614704 pbc="F F F"
Co       0.00000000       0.00000000       0.00000000       0.00000000       0.00000000       0.16677481
Co       0.00000000       0.00000000       4.23636364       0.00000000       0.00000000      -0.16677481
2
Properties=species:S:1:pos:R:3:forces:R:3 energy=-3.936608404541773 pbc="F F F"
Co       0.00000000       0.00000000       0.00000000       0.00000000       0.00000000       0.13067894
Co       0.00000000       0.00000000       4.29515152       0.00000000       0.00000000      -0.13067894
2
Properties=species:S:1:pos:R:3:forces:R:3 energy=-3.929926589073617 pbc="F F F"
Co       0.00000000       0.00000000       0.00000000       0.00000000       0.00000000       0.09718477
Co       0.00000000       0.00000000       4.35393939       0.00000000       0.00000000      -0.09718477
2
Properties=species:S:1:pos:R:3:forces:R:3 energy=-3.925106605345471 pbc="F F F"
Co       0.00000000       0.00000000       0.00000000       0.00000000       0.00000000       0.06753527
Co       0.00000000       0.00000000       4.41272727       0.00000000       0.00000000      -0.06753527
2
Properties=species:S:1:pos:R:3:forces:R:3 energy=-3.9218888220855246 pbc="F F F"
Co       0.00000000       0.00000000       0.00000000       0.00000000       0.00000000       0.04282916
Co       0.00000000       0.00000000       4.47151515       0.00000000       0.00000000      -0.04282916
2
Properties=species:S:1:pos:R:3:forces:R:3 energy=-3.919960493027819 pbc="F F F"
Co       0.00000000       0.00000000       0.00000000       0.00000000       0.00000000       0.02373053
Co       0.00000000       0.00000000       4.53030303       0.00000000       0.00000000      -0.02373053
2
Properties=species:S:1:pos:R:3:forces:R:3 energy=-3.9189870190884246 pbc="F F F"
Co       0.00000000       0.00000000       0.00000000       0.00000000       0.00000000       0.01030823
Co       0.00000000       0.00000000       4.58909091       0.00000000       0.00000000      -0.01030823
2
Properties=species:S:1:pos:R:3:forces:R:3 energy=-3.9186469642183495 pbc="F F F"
Co       0.00000000       0.00000000       0.00000000       0.00000000       0.00000000       0.00204971
Co       0.00000000       0.00000000       4.64787879       0.00000000       0.00000000      -0.00204971
2
Properties=species:S:1:pos:R:3:forces:R:3 energy=-3.9186625096252206 pbc="F F F"
Co       0.00000000       0.00000000       0.00000000       0.00000000       0.00000000      -0.00195340
Co       0.00000000       0.00000000       4.70666667       0.00000000       0.00000000       0.00195340
2
Properties=species:S:1:pos:R:3:forces:R:3 energy=-3.918813419099141 pbc="F F F"
Co       0.00000000       0.00000000       0.00000000       0.00000000       0.00000000      -0.00272247
Co       0.00000000       0.00000000       4.76545455       0.00000000       0.00000000       0.00272247
2
Properties=species:S:1:pos:R:3:forces:R:3 energy=-3.918936625531976 pbc="F F F"
Co       0.00000000       0.00000000       0.00000000       0.00000000       0.00000000      -0.00113024
Co       0.00000000       0.00000000       4.82424242       0.00000000       0.00000000       0.00113024
2
Properties=species:S:1:pos:R:3:forces:R:3 energy=-3.918911426790695 pbc="F F F"
Co       0.00000000       0.00000000       0.00000000       0.00000000       0.00000000       0.00224661
Co       0.00000000       0.00000000       4.88303030       0.00000000       0.00000000      -0.00224661
2
Properties=species:S:1:pos:R:3:forces:R:3 energy=-3.9186432669183446 pbc="F F F"
Co       0.00000000       0.00000000       0.00000000       0.00000000       0.00000000       0.00711893
Co       0.00000000       0.00000000       4.94181818       0.00000000       0.00000000      -0.00711893
2
Properties=species:S:1:pos:R:3:forces:R:3 energy=-3.918047819110051 pbc="F F F"
Co       0.00000000       0.00000000       0.00000000       0.00000000       0.00000000       0.01335476
Co       0.00000000       0.00000000       5.00060606       0.00000000       0.00000000      -0.01335476
2
Properties=species:S:1:pos:R:3:forces:R:3 energy=-3.9170491987416267 pbc="F F F"
Co       0.00000000       0.00000000       0.00000000       0.00000000       0.00000000       0.02080363
Co       0.00000000       0.00000000       5.05939394       0.00000000       0.00000000      -0.02080363
2
Properties=species:S:1:pos:R:3:forces:R:3 energy=-3.9155839753037283 pbc="F F F"
Co       0.00000000       0.00000000       0.00000000       0.00000000       0.00000000       0.02915261
Co       0.00000000       0.00000000       5.11818182       0.00000000       0.00000000      -0.02915261
2
Properties=species:S:1:pos:R:3:forces:R:3 energy=-3.913614421640059 pbc="F F F"
Co       0.00000000       0.00000000       0.00000000       0.00000000       0.00000000       0.03785445
Co       0.00000000       0.00000000       5.17696970       0.00000000       0.00000000      -0.03785445
2
Properties=species:S:1:pos:R:3:forces:R:3 energy=-3.9111412039850375 pbc="F F F"
Co       0.00000000       0.00000000       0.00000000       0.00000000       0.00000000       0.04615984
Co       0.00000000       0.00000000       5.23575758       0.00000000       0.00000000      -0.04615984
2
Properties=species:S:1:pos:R:3:forces:R:3 energy=-3.90821178997051 pbc="F F F"
Co       0.00000000       0.00000000       0.00000000       0.00000000       0.00000000       0.05322172
Co       0.00000000       0.00000000       5.29454545       0.00000000       0.00000000      -0.05322172
2
Properties=species:S:1:pos:R:3:forces:R:3 energy=-3.904923161513052 pbc="F F F"
Co       0.00000000       0.00000000       0.00000000       0.00000000       0.00000000       0.05825597
Co       0.00000000       0.00000000       5.35333333       0.00000000       0.00000000      -0.05825597
2
Properties=species:S:1:pos:R:3:forces:R:3 energy=-3.9014132460003172 pbc="F F F"
Co       0.00000000       0.00000000       0.00000000       0.00000000       0.00000000       0.06068714
Co       0.00000000       0.00000000       5.41212121       0.00000000       0.00000000      -0.06068714
2
Properties=species:S:1:pos:R:3:forces:R:3 energy=-3.8978440915261463 pbc="F F F"
Co       0.00000000       0.00000000       0.00000000       0.00000000       0.00000000       0.06026021
Co       0.00000000       0.00000000       5.47090909       0.00000000       0.00000000      -0.06026021
2
Properties=species:S:1:pos:R:3:forces:R:3 energy=-3.8943821098267177 pbc="F F F"
Co       0.00000000       0.00000000       0.00000000       0.00000000       0.00000000       0.05708082
Co       0.00000000       0.00000000       5.52969697       0.00000000       0.00000000      -0.05708082
2
Properties=species:S:1:pos:R:3:forces:R:3 energy=-3.8911785576352864 pbc="F F F"
Co       0.00000000       0.00000000       0.00000000       0.00000000       0.00000000       0.05156973
Co       0.00000000       0.00000000       5.58848485       0.00000000       0.00000000      -0.05156973
2
Properties=species:S:1:pos:R:3:forces:R:3 energy=-3.888351505569191 pbc="F F F"
Co       0.00000000       0.00000000       0.00000000       0.00000000       0.00000000       0.04439461
Co       0.00000000       0.00000000       5.64727273       0.00000000       0.00000000      -0.04439461
2
Properties=species:S:1:pos:R:3:forces:R:3 energy=-3.88597628000389 pbc="F F F"
Co       0.00000000       0.00000000       0.00000000       0.00000000       0.00000000       0.03635893
Co       0.00000000       0.00000000       5.70606061       0.00000000       0.00000000      -0.03635893
2
Properties=species:S:1:pos:R:3:forces:R:3 energy=-3.8840757314687737 pbc="F F F"
Co       0.00000000       0.00000000       0.00000000       0.00000000       0.00000000       0.02827618
Co       0.00000000       0.00000000       5.76484848       0.00000000       0.00000000      -0.02827618
2
Properties=species:S:1:pos:R:3:forces:R:3 energy=-3.882636039965472 pbc="F F F"
Co       0.00000000       0.00000000       0.00000000       0.00000000       0.00000000       0.02092044
Co       0.00000000       0.00000000       5.82363636       0.00000000       0.00000000      -0.02092044
2
Properties=species:S:1:pos:R:3:forces:R:3 energy=-3.881591169450924 pbc="F F F"
Co       0.00000000       0.00000000       0.00000000       0.00000000       0.00000000       0.01493859
Co       0.00000000       0.00000000       5.88242424       0.00000000       0.00000000      -0.01493859
2
Properties=species:S:1:pos:R:3:forces:R:3 energy=-3.880842472805799 pbc="F F F"
Co       0.00000000       0.00000000       0.00000000       0.00000000       0.00000000       0.01084665
Co       0.00000000       0.00000000       5.94121212       0.00000000       0.00000000      -0.01084665
2
Properties=species:S:1:pos:R:3:forces:R:3 energy=-3.880270388600069 pbc="F F F"
Co       0.00000000       0.00000000       0.00000000       0.00000000       0.00000000       0.00903741
Co       0.00000000       0.00000000       6.00000000       0.00000000       0.00000000      -0.00903741
