2
Properties=species:S:1:pos:R:3:forces:R:3 energy=5116.4569976855855 pbc="F F F"
Cr       0.00000000       0.00000000       0.00000000       0.00000000       0.00000000  -48808.96093750
Cr       0.00000000       0.00000000       0.18000000       0.00000000       0.00000000   48808.96093750
2
Properties=species:S:1:pos:R:3:forces:R:3 energy=3332.9609039355855 pbc="F F F"
Cr       0.00000000       0.00000000       0.00000000       0.00000000       0.00000000  -17942.00781250
Cr       0.00000000       0.00000000       0.23878788       0.00000000       0.00000000   17942.00781250
2
Properties=species:S:1:pos:R:3:forces:R:3 energy=2626.7328765950033 pbc="F F F"
Cr       0.00000000       0.00000000       0.00000000       0.00000000       0.00000000   -7749.29638672
Cr       0.00000000       0.00000000       0.29757576       0.00000000       0.00000000    7749.29638672
2
Properties=species:S:1:pos:R:3:forces:R:3 energy=2306.164273082546 pbc="F F F"
Cr       0.00000000       0.00000000       0.00000000       0.00000000       0.00000000   -3726.70190430
Cr       0.00000000       0.00000000       0.35636364       0.00000000       0.00000000    3726.70190430
2
Properties=species:S:1:pos:R:3:forces:R:3 energy=2145.3835113701316 pbc="F F F"
Cr       0.00000000       0.00000000       0.00000000       0.00000000       0.00000000   -1979.76489258
Cr       0.00000000       0.00000000       0.41515152       0.00000000       0.00000000    1979.76489258
2
Properties=species:S:1:pos:R:3:forces:R:3 energy=2053.4323395141387 pbc="F F F"
Cr       0.00000000       0.00000000       0.00000000       0.00000000       0.00000000   -1276.47192383
Cr       0.00000000       0.00000000       0.47393939       0.00000000       0.00000000    1276.47192383
2
Properties=species:S:1:pos:R:3:forces:R:3 energy=1982.4440582989846 pbc="F F F"
Cr       0.00000000       0.00000000       0.00000000       0.00000000       0.00000000   -1239.67968750
Cr       0.00000000       0.00000000       0.53272727       0.00000000       0.00000000    1239.67968750
2
Properties=species:S:1:pos:R:3:forces:R:3 energy=1895.5468415591304 pbc="F F F"
Cr       0.00000000       0.00000000       0.00000000       0.00000000       0.00000000   -1824.37500000
Cr       0.00000000       0.00000000       0.59151515       0.00000000       0.00000000    1824.37500000
2
Properties=species:S:1:pos:R:3:forces:R:3 energy=1754.9539461463526 pbc="F F F"
Cr       0.00000000       0.00000000       0.00000000       0.00000000       0.00000000   -3068.14526367
Cr       0.00000000       0.00000000       0.65030303       0.00000000       0.00000000    3068.14526367
2
Properties=species:S:1:pos:R:3:forces:R:3 energy=1537.414151376533 pbc="F F F"
Cr       0.00000000       0.00000000       0.00000000       0.00000000       0.00000000   -4119.23974609
Cr       0.00000000       0.00000000       0.70909091       0.00000000       0.00000000    4119.23974609
2
Properties=species:S:1:pos:R:3:forces:R:3 energy=1243.8631262139913 pbc="F F F"
Cr       0.00000000       0.00000000       0.00000000       0.00000000       0.00000000   -5768.09326172
Cr       0.00000000       0.00000000       0.76787879       0.00000000       0.00000000    5768.09326172
2
Properties=species:S:1:pos:R:3:forces:R:3 energy=877.4626748896242 pbc="F F F"
Cr       0.00000000       0.00000000       0.00000000       0.00000000       0.00000000   -6471.85791016
Cr       0.00000000       0.00000000       0.82666667       0.00000000       0.00000000    6471.85791016
2
Properties=species:S:1:pos:R:3:forces:R:3 energy=513.2314131672697 pbc="F F F"
Cr       0.00000000       0.00000000       0.00000000       0.00000000       0.00000000   -5669.16406250
Cr       0.00000000       0.00000000       0.88545455       0.00000000       0.00000000    5669.16406250
2
Properties=species:S:1:pos:R:3:forces:R:3 energy=228.72193814034367 pbc="F F F"
Cr       0.00000000       0.00000000       0.00000000       0.00000000       0.00000000   -3894.79418945
Cr       0.00000000       0.00000000       0.94424242       0.00000000       0.00000000    3894.79418945
2
Properties=species:S:1:pos:R:3:forces:R:3 energy=76.54565427847649 pbc="F F F"
Cr       0.00000000       0.00000000       0.00000000       0.00000000       0.00000000    -678.55072021
Cr       0.00000000       0.00000000       1.00303030       0.00000000       0.00000000     678.55072021
2
Properties=species:S:1:pos:R:3:forces:R:3 energy=43.75277070944173 pbc="F F F"
Cr       0.00000000       0.00000000       0.00000000       0.00000000       0.00000000    -440.29318237
Cr       0.00000000       0.00000000       1.06181818       0.00000000       0.00000000     440.29318237
2
Properties=species:S:1:pos:R:3:forces:R:3 energy=23.409583142549863 pbc="F F F"
Cr       0.00000000       0.00000000       0.00000000       0.00000000       0.00000000    -264.26574707
Cr       0.00000000       0.00000000       1.12060606       0.00000000       0.00000000     264.26574707
2
Properties=species:S:1:pos:R:3:forces:R:3 energy=11.083666180208816 pbc="F F F"
Cr       0.00000000       0.00000000       0.00000000       0.00000000       0.00000000    -167.09643555
Cr       0.00000000       0.00000000       1.17939394       0.00000000       0.00000000     167.09643555
2
Properties=species:S:1:pos:R:3:forces:R:3 energy=2.9157260114483594 pbc="F F F"
Cr       0.00000000       0.00000000       0.00000000       0.00000000       0.00000000    -114.40174866
Cr       0.00000000       0.00000000       1.23818182       0.00000000       0.00000000     114.40174866
2
Properties=species:S:1:pos:R:3:forces:R:3 energy=-2.649233714825847 pbc="F F F"
Cr       0.00000000       0.00000000       0.00000000       0.00000000       0.00000000     -76.96649933
Cr       0.00000000       0.00000000       1.29696970       0.00000000       0.00000000      76.96649933
2
Properties=species:S:1:pos:R:3:forces:R:3 energy=-6.358704651427971 pbc="F F F"
Cr       0.00000000       0.00000000       0.00000000       0.00000000       0.00000000     -50.82102203
Cr       0.00000000       0.00000000       1.35575758       0.00000000       0.00000000      50.82102203
2
Properties=species:S:1:pos:R:3:forces:R:3 energy=-8.765322758001915 pbc="F F F"
Cr       0.00000000       0.00000000       0.00000000       0.00000000       0.00000000     -32.07049561
Cr       0.00000000       0.00000000       1.41454545       0.00000000       0.00000000      32.07049561
2
Properties=species:S:1:pos:R:3:forces:R:3 energy=-10.256117447955987 pbc="F F F"
Cr       0.00000000       0.00000000       0.00000000       0.00000000       0.00000000     -19.68833542
Cr       0.00000000       0.00000000       1.47333333       0.00000000       0.00000000      19.68833542
2
Properties=species:S:1:pos:R:3:forces:R:3 energy=-11.171170668121741 pbc="F F F"
Cr       0.00000000       0.00000000       0.00000000       0.00000000       0.00000000     -11.93494892
Cr       0.00000000       0.00000000       1.53212121       0.00000000       0.00000000      11.93494892
2
Properties=species:S:1:pos:R:3:forces:R:3 energy=-11.699359226436785 pbc="F F F"
Cr       0.00000000       0.00000000       0.00000000       0.00000000       0.00000000      -6.30478001
Cr       0.00000000       0.00000000       1.59090909       0.00000000       0.00000000       6.30478001
2
Properties=species:S:1:pos:R:3:forces:R:3 energy=-11.942921587922122 pbc="F F F"
Cr       0.00000000       0.00000000       0.00000000       0.00000000       0.00000000      -2.23782349
Cr       0.00000000       0.00000000       1.64969697       0.00000000       0.00000000       2.23782349
2
Properties=species:S:1:pos:R:3:forces:R:3 energy=-11.991910227372335 pbc="F F F"
Cr       0.00000000       0.00000000       0.00000000       0.00000000       0.00000000       0.33303955
Cr       0.00000000       0.00000000       1.70848485       0.00000000       0.00000000      -0.33303955
2
Properties=species:S:1:pos:R:3:forces:R:3 energy=-11.929210063181317 pbc="F F F"
Cr       0.00000000       0.00000000       0.00000000       0.00000000       0.00000000       1.61038971
Cr       0.00000000       0.00000000       1.76727273       0.00000000       0.00000000      -1.61038971
2
Properties=species:S:1:pos:R:3:forces:R:3 energy=-11.821168980986592 pbc="F F F"
Cr       0.00000000       0.00000000       0.00000000       0.00000000       0.00000000       1.93996084
Cr       0.00000000       0.00000000       1.82606061       0.00000000       0.00000000      -1.93996084
2
Properties=species:S:1:pos:R:3:forces:R:3 energy=-11.711931544376318 pbc="F F F"
Cr       0.00000000       0.00000000       0.00000000       0.00000000       0.00000000       1.71648657
Cr       0.00000000       0.00000000       1.88484848       0.00000000       0.00000000      -1.71648657
2
Properties=species:S:1:pos:R:3:forces:R:3 energy=-11.623134690259148 pbc="F F F"
Cr       0.00000000       0.00000000       0.00000000       0.00000000       0.00000000       1.29534161
Cr       0.00000000       0.00000000       1.94363636       0.00000000       0.00000000      -1.29534161
2
Properties=species:S:1:pos:R:3:forces:R:3 energy=-11.55896756650346 pbc="F F F"
Cr       0.00000000       0.00000000       0.00000000       0.00000000       0.00000000       0.90229833
Cr       0.00000000       0.00000000       2.00242424       0.00000000       0.00000000      -0.90229833
2
Properties=species:S:1:pos:R:3:forces:R:3 energy=-11.515068562056044 pbc="F F F"
Cr       0.00000000       0.00000000       0.00000000       0.00000000       0.00000000       0.60744417
Cr       0.00000000       0.00000000       2.06121212       0.00000000       0.00000000      -0.60744417
2
Properties=species:S:1:pos:R:3:forces:R:3 energy=-11.48585390694997 pbc="F F F"
Cr       0.00000000       0.00000000       0.00000000       0.00000000       0.00000000       0.39961332
Cr       0.00000000       0.00000000       2.12000000       0.00000000       0.00000000      -0.39961332
2
Properties=species:S:1:pos:R:3:forces:R:3 energy=-11.46645439381279 pbc="F F F"
Cr       0.00000000       0.00000000       0.00000000       0.00000000       0.00000000       0.27632517
Cr       0.00000000       0.00000000       2.17878788       0.00000000       0.00000000      -0.27632517
2
Properties=species:S:1:pos:R:3:forces:R:3 energy=-11.451150171959288 pbc="F F F"
Cr       0.00000000       0.00000000       0.00000000       0.00000000       0.00000000       0.26555836
Cr       0.00000000       0.00000000       2.23757576       0.00000000       0.00000000      -0.26555836
2
Properties=species:S:1:pos:R:3:forces:R:3 energy=-11.432755799289872 pbc="F F F"
Cr       0.00000000       0.00000000       0.00000000       0.00000000       0.00000000       0.37837672
Cr       0.00000000       0.00000000       2.29636364       0.00000000       0.00000000      -0.37837672
2
Properties=species:S:1:pos:R:3:forces:R:3 energy=-11.405410429422863 pbc="F F F"
Cr       0.00000000       0.00000000       0.00000000       0.00000000       0.00000000       0.55239004
Cr       0.00000000       0.00000000       2.35515152       0.00000000       0.00000000      -0.55239004
2
Properties=species:S:1:pos:R:3:forces:R:3 energy=-11.369195676426857 pbc="F F F"
Cr       0.00000000       0.00000000       0.00000000       0.00000000       0.00000000       0.65582311
Cr       0.00000000       0.00000000       2.41393939       0.00000000       0.00000000      -0.65582311
2
Properties=species:S:1:pos:R:3:forces:R:3 energy=-11.332156583498335 pbc="F F F"
Cr       0.00000000       0.00000000       0.00000000       0.00000000       0.00000000       0.56602979
Cr       0.00000000       0.00000000       2.47272727       0.00000000       0.00000000      -0.56602979
2
Properties=species:S:1:pos:R:3:forces:R:3 energy=-11.307064252305432 pbc="F F F"
Cr       0.00000000       0.00000000       0.00000000       0.00000000       0.00000000       0.25473332
Cr       0.00000000       0.00000000       2.53151515       0.00000000       0.00000000      -0.25473332
2
Properties=species:S:1:pos:R:3:forces:R:3 energy=-11.304937375954971 pbc="F F F"
Cr       0.00000000       0.00000000       0.00000000       0.00000000       0.00000000      -0.19365668
Cr       0.00000000       0.00000000       2.59030303       0.00000000       0.00000000       0.19365668
2
Properties=species:S:1:pos:R:3:forces:R:3 energy=-11.32958408524092 pbc="F F F"
Cr       0.00000000       0.00000000       0.00000000       0.00000000       0.00000000      -0.62988758
Cr       0.00000000       0.00000000       2.64909091       0.00000000       0.00000000       0.62988758
2
Properties=species:S:1:pos:R:3:forces:R:3 energy=-11.376171176759911 pbc="F F F"
Cr       0.00000000       0.00000000       0.00000000       0.00000000       0.00000000      -0.92602611
Cr       0.00000000       0.00000000       2.70787879       0.00000000       0.00000000       0.92602611
2
Properties=species:S:1:pos:R:3:forces:R:3 energy=-11.435145391108012 pbc="F F F"
Cr       0.00000000       0.00000000       0.00000000       0.00000000       0.00000000      -1.05508399
Cr       0.00000000       0.00000000       2.76666667       0.00000000       0.00000000       1.05508399
2
Properties=species:S:1:pos:R:3:forces:R:3 energy=-11.497663183836782 pbc="F F F"
Cr       0.00000000       0.00000000       0.00000000       0.00000000       0.00000000      -1.05290842
Cr       0.00000000       0.00000000       2.82545455       0.00000000       0.00000000       1.05290842
2
Properties=species:S:1:pos:R:3:forces:R:3 energy=-11.556994141300315 pbc="F F F"
Cr       0.00000000       0.00000000       0.00000000       0.00000000       0.00000000      -0.95147419
Cr       0.00000000       0.00000000       2.88424242       0.00000000       0.00000000       0.95147419
2
Properties=species:S:1:pos:R:3:forces:R:3 energy=-11.608243715490213 pbc="F F F"
Cr       0.00000000       0.00000000       0.00000000       0.00000000       0.00000000      -0.78450871
Cr       0.00000000       0.00000000       2.94303030       0.00000000       0.00000000       0.78450871
2
Properties=species:S:1:pos:R:3:forces:R:3 energy=-11.648773661958053 pbc="F F F"
Cr       0.00000000       0.00000000       0.00000000       0.00000000       0.00000000      -0.59390974
Cr       0.00000000       0.00000000       3.00181818       0.00000000       0.00000000       0.59390974
2
Properties=species:S:1:pos:R:3:forces:R:3 energy=-11.678355343995452 pbc="F F F"
Cr       0.00000000       0.00000000       0.00000000       0.00000000       0.00000000      -0.41715762
Cr       0.00000000       0.00000000       3.06060606       0.00000000       0.00000000       0.41715762
2
Properties=species:S:1:pos:R:3:forces:R:3 energy=-11.698516433437646 pbc="F F F"
Cr       0.00000000       0.00000000       0.00000000       0.00000000       0.00000000      -0.27524567
Cr       0.00000000       0.00000000       3.11939394       0.00000000       0.00000000       0.27524567
2
Properties=species:S:1:pos:R:3:forces:R:3 energy=-11.711443916297586 pbc="F F F"
Cr       0.00000000       0.00000000       0.00000000       0.00000000       0.00000000      -0.16996881
Cr       0.00000000       0.00000000       3.17818182       0.00000000       0.00000000       0.16996881
2
Properties=species:S:1:pos:R:3:forces:R:3 energy=-11.718994647154473 pbc="F F F"
Cr       0.00000000       0.00000000       0.00000000       0.00000000       0.00000000      -0.08976013
Cr       0.00000000       0.00000000       3.23696970       0.00000000       0.00000000       0.08976013
2
Properties=species:S:1:pos:R:3:forces:R:3 energy=-11.722181086327236 pbc="F F F"
Cr       0.00000000       0.00000000       0.00000000       0.00000000       0.00000000      -0.01903445
Cr       0.00000000       0.00000000       3.29575758       0.00000000       0.00000000       0.01903445
2
Properties=species:S:1:pos:R:3:forces:R:3 energy=-11.72117890994244 pbc="F F F"
Cr       0.00000000       0.00000000       0.00000000       0.00000000       0.00000000       0.05418563
Cr       0.00000000       0.00000000       3.35454545       0.00000000       0.00000000      -0.05418563
2
Properties=species:S:1:pos:R:3:forces:R:3 energy=-11.715658460780551 pbc="F F F"
Cr       0.00000000       0.00000000       0.00000000       0.00000000       0.00000000       0.13494435
Cr       0.00000000       0.00000000       3.41333333       0.00000000       0.00000000      -0.13494435
2
Properties=species:S:1:pos:R:3:forces:R:3 energy=-11.705187712024646 pbc="F F F"
Cr       0.00000000       0.00000000       0.00000000       0.00000000       0.00000000       0.22196366
Cr       0.00000000       0.00000000       3.47212121       0.00000000       0.00000000      -0.22196366
2
Properties=species:S:1:pos:R:3:forces:R:3 energy=-11.689536356318822 pbc="F F F"
Cr       0.00000000       0.00000000       0.00000000       0.00000000       0.00000000       0.31020570
Cr       0.00000000       0.00000000       3.53090909       0.00000000       0.00000000      -0.31020570
2
Properties=species:S:1:pos:R:3:forces:R:3 energy=-11.668812523320229 pbc="F F F"
Cr       0.00000000       0.00000000       0.00000000       0.00000000       0.00000000       0.39346436
Cr       0.00000000       0.00000000       3.58969697       0.00000000       0.00000000      -0.39346436
2
Properties=species:S:1:pos:R:3:forces:R:3 energy=-11.643484733215285 pbc="F F F"
Cr       0.00000000       0.00000000       0.00000000       0.00000000       0.00000000       0.46599004
Cr       0.00000000       0.00000000       3.64848485       0.00000000       0.00000000      -0.46599004
2
Properties=species:S:1:pos:R:3:forces:R:3 energy=-11.614324777630994 pbc="F F F"
Cr       0.00000000       0.00000000       0.00000000       0.00000000       0.00000000       0.52319252
Cr       0.00000000       0.00000000       3.70727273       0.00000000       0.00000000      -0.52319252
2
Properties=species:S:1:pos:R:3:forces:R:3 energy=-11.582334343733386 pbc="F F F"
Cr       0.00000000       0.00000000       0.00000000       0.00000000       0.00000000       0.56188059
Cr       0.00000000       0.00000000       3.76606061       0.00000000       0.00000000      -0.56188059
2
Properties=species:S:1:pos:R:3:forces:R:3 energy=-11.5486583122281 pbc="F F F"
Cr       0.00000000       0.00000000       0.00000000       0.00000000       0.00000000       0.58039367
Cr       0.00000000       0.00000000       3.82484848       0.00000000       0.00000000      -0.58039367
2
Properties=species:S:1:pos:R:3:forces:R:3 energy=-11.514490324596125 pbc="F F F"
Cr       0.00000000       0.00000000       0.00000000       0.00000000       0.00000000       0.57870990
Cr       0.00000000       0.00000000       3.88363636       0.00000000       0.00000000      -0.57870990
2
Properties=species:S:1:pos:R:3:forces:R:3 energy=-11.480981281044576 pbc="F F F"
Cr       0.00000000       0.00000000       0.00000000       0.00000000       0.00000000       0.55840504
Cr       0.00000000       0.00000000       3.94242424       0.00000000       0.00000000      -0.55840504
2
Properties=species:S:1:pos:R:3:forces:R:3 energy=-11.449144825379072 pbc="F F F"
Cr       0.00000000       0.00000000       0.00000000       0.00000000       0.00000000       0.52238238
Cr       0.00000000       0.00000000       4.00121212       0.00000000       0.00000000      -0.52238238
2
Properties=species:S:1:pos:R:3:forces:R:3 energy=-11.419796227484099 pbc="F F F"
Cr       0.00000000       0.00000000       0.00000000       0.00000000       0.00000000       0.47439727
Cr       0.00000000       0.00000000       4.06000000       0.00000000       0.00000000      -0.47439727
2
Properties=species:S:1:pos:R:3:forces:R:3 energy=-11.393521840402311 pbc="F F F"
Cr       0.00000000       0.00000000       0.00000000       0.00000000       0.00000000       0.41851515
Cr       0.00000000       0.00000000       4.11878788       0.00000000       0.00000000      -0.41851515
2
Properties=species:S:1:pos:R:3:forces:R:3 energy=-11.370667459837765 pbc="F F F"
Cr       0.00000000       0.00000000       0.00000000       0.00000000       0.00000000       0.35861176
Cr       0.00000000       0.00000000       4.17757576       0.00000000       0.00000000      -0.35861176
2
Properties=species:S:1:pos:R:3:forces:R:3 energy=-11.351369567325161 pbc="F F F"
Cr       0.00000000       0.00000000       0.00000000       0.00000000       0.00000000       0.29805198
Cr       0.00000000       0.00000000       4.23636364       0.00000000       0.00000000      -0.29805198
2
Properties=species:S:1:pos:R:3:forces:R:3 energy=-11.335582917092932 pbc="F F F"
Cr       0.00000000       0.00000000       0.00000000       0.00000000       0.00000000       0.23955883
Cr       0.00000000       0.00000000       4.29515152       0.00000000       0.00000000      -0.23955883
2
Properties=species:S:1:pos:R:3:forces:R:3 energy=-11.32312136032517 pbc="F F F"
Cr       0.00000000       0.00000000       0.00000000       0.00000000       0.00000000       0.18526748
Cr       0.00000000       0.00000000       4.35393939       0.00000000       0.00000000      -0.18526748
2
Properties=species:S:1:pos:R:3:forces:R:3 energy=-11.313685134249425 pbc="F F F"
Cr       0.00000000       0.00000000       0.00000000       0.00000000       0.00000000       0.13684791
Cr       0.00000000       0.00000000       4.41272727       0.00000000       0.00000000      -0.13684791
2
Properties=species:S:1:pos:R:3:forces:R:3 energy=-11.306889396338471 pbc="F F F"
Cr       0.00000000       0.00000000       0.00000000       0.00000000       0.00000000       0.09566294
Cr       0.00000000       0.00000000       4.47151515       0.00000000       0.00000000      -0.09566294
2
Properties=species:S:1:pos:R:3:forces:R:3 energy=-11.302273612165827 pbc="F F F"
Cr       0.00000000       0.00000000       0.00000000       0.00000000       0.00000000       0.06282557
Cr       0.00000000       0.00000000       4.53030303       0.00000000       0.00000000      -0.06282557
2
Properties=species:S:1:pos:R:3:forces:R:3 energy=-11.299322279647127 pbc="F F F"
Cr       0.00000000       0.00000000       0.00000000       0.00000000       0.00000000       0.03916157
Cr       0.00000000       0.00000000       4.58909091       0.00000000       0.00000000      -0.03916157
2
Properties=species:S:1:pos:R:3:forces:R:3 energy=-11.297481052804471 pbc="F F F"
Cr       0.00000000       0.00000000       0.00000000       0.00000000       0.00000000       0.02506275
Cr       0.00000000       0.00000000       4.64787879       0.00000000       0.00000000      -0.02506275
2
Properties=species:S:1:pos:R:3:forces:R:3 energy=-11.2961919358493 pbc="F F F"
Cr       0.00000000       0.00000000       0.00000000       0.00000000       0.00000000       0.02030621
Cr       0.00000000       0.00000000       4.70666667       0.00000000       0.00000000      -0.02030621
2
Properties=species:S:1:pos:R:3:forces:R:3 energy=-11.294929402429169 pbc="F F F"
Cr       0.00000000       0.00000000       0.00000000       0.00000000       0.00000000       0.02391849
Cr       0.00000000       0.00000000       4.76545455       0.00000000       0.00000000      -0.02391849
2
Properties=species:S:1:pos:R:3:forces:R:3 energy=-11.293249029850069 pbc="F F F"
Cr       0.00000000       0.00000000       0.00000000       0.00000000       0.00000000       0.03417925
Cr       0.00000000       0.00000000       4.82424242       0.00000000       0.00000000      -0.03417925
2
Properties=species:S:1:pos:R:3:forces:R:3 energy=-11.290824673367828 pbc="F F F"
Cr       0.00000000       0.00000000       0.00000000       0.00000000       0.00000000       0.04879922
Cr       0.00000000       0.00000000       4.88303030       0.00000000       0.00000000      -0.04879922
2
Properties=species:S:1:pos:R:3:forces:R:3 energy=-11.287475118383815 pbc="F F F"
Cr       0.00000000       0.00000000       0.00000000       0.00000000       0.00000000       0.06525265
Cr       0.00000000       0.00000000       4.94181818       0.00000000       0.00000000      -0.06525265
2
Properties=species:S:1:pos:R:3:forces:R:3 energy=-11.28316418181526 pbc="F F F"
Cr       0.00000000       0.00000000       0.00000000       0.00000000       0.00000000       0.08112884
Cr       0.00000000       0.00000000       5.00060606       0.00000000       0.00000000      -0.08112884
2
Properties=species:S:1:pos:R:3:forces:R:3 energy=-11.277986470336938 pbc="F F F"
Cr       0.00000000       0.00000000       0.00000000       0.00000000       0.00000000       0.09445880
Cr       0.00000000       0.00000000       5.05939394       0.00000000       0.00000000      -0.09445880
2
Properties=species:S:1:pos:R:3:forces:R:3 energy=-11.272134939615304 pbc="F F F"
Cr       0.00000000       0.00000000       0.00000000       0.00000000       0.00000000       0.10390264
Cr       0.00000000       0.00000000       5.11818182       0.00000000       0.00000000      -0.10390264
2
Properties=species:S:1:pos:R:3:forces:R:3 energy=-11.265860013025778 pbc="F F F"
Cr       0.00000000       0.00000000       0.00000000       0.00000000       0.00000000       0.10880249
Cr       0.00000000       0.00000000       5.17696970       0.00000000       0.00000000      -0.10880249
2
Properties=species:S:1:pos:R:3:forces:R:3 energy=-11.259432461214308 pbc="F F F"
Cr       0.00000000       0.00000000       0.00000000       0.00000000       0.00000000       0.10913030
Cr       0.00000000       0.00000000       5.23575758       0.00000000       0.00000000      -0.10913030
2
Properties=species:S:1:pos:R:3:forces:R:3 energy=-11.253110115363144 pbc="F F F"
Cr       0.00000000       0.00000000       0.00000000       0.00000000       0.00000000       0.10536022
Cr       0.00000000       0.00000000       5.29454545       0.00000000       0.00000000      -0.10536022
2
Properties=species:S:1:pos:R:3:forces:R:3 energy=-11.247109331405166 pbc="F F F"
Cr       0.00000000       0.00000000       0.00000000       0.00000000       0.00000000       0.09830214
Cr       0.00000000       0.00000000       5.35333333       0.00000000       0.00000000      -0.09830214
2
Properties=species:S:1:pos:R:3:forces:R:3 energy=-11.241596449720628 pbc="F F F"
Cr       0.00000000       0.00000000       0.00000000       0.00000000       0.00000000       0.08893063
Cr       0.00000000       0.00000000       5.41212121       0.00000000       0.00000000      -0.08893063
2
Properties=species:S:1:pos:R:3:forces:R:3 energy=-11.23667933561338 pbc="F F F"
Cr       0.00000000       0.00000000       0.00000000       0.00000000       0.00000000       0.07822954
Cr       0.00000000       0.00000000       5.47090909       0.00000000       0.00000000      -0.07822954
2
Properties=species:S:1:pos:R:3:forces:R:3 energy=-11.232407417324737 pbc="F F F"
Cr       0.00000000       0.00000000       0.00000000       0.00000000       0.00000000       0.06706102
Cr       0.00000000       0.00000000       5.52969697       0.00000000       0.00000000      -0.06706102
2
Properties=species:S:1:pos:R:3:forces:R:3 energy=-11.228789858114547 pbc="F F F"
Cr       0.00000000       0.00000000       0.00000000       0.00000000       0.00000000       0.05611170
Cr       0.00000000       0.00000000       5.58848485       0.00000000       0.00000000      -0.05611170
2
Properties=species:S:1:pos:R:3:forces:R:3 energy=-11.225796614473646 pbc="F F F"
Cr       0.00000000       0.00000000       0.00000000       0.00000000       0.00000000       0.04587188
Cr       0.00000000       0.00000000       5.64727273       0.00000000       0.00000000      -0.04587188
2
Properties=species:S:1:pos:R:3:forces:R:3 energy=-11.223376532177202 pbc="F F F"
Cr       0.00000000       0.00000000       0.00000000       0.00000000       0.00000000       0.03665750
Cr       0.00000000       0.00000000       5.70606061       0.00000000       0.00000000      -0.03665750
2
Properties=species:S:1:pos:R:3:forces:R:3 energy=-11.221461232257976 pbc="F F F"
Cr       0.00000000       0.00000000       0.00000000       0.00000000       0.00000000       0.02866947
Cr       0.00000000       0.00000000       5.76484848       0.00000000       0.00000000      -0.02866947
2
Properties=species:S:1:pos:R:3:forces:R:3 energy=-11.219978549561864 pbc="F F F"
Cr       0.00000000       0.00000000       0.00000000       0.00000000       0.00000000       0.02204711
Cr       0.00000000       0.00000000       5.82363636       0.00000000       0.00000000      -0.02204711
2
Properties=species:S:1:pos:R:3:forces:R:3 energy=-11.218841017380099 pbc="F F F"
Cr       0.00000000       0.00000000       0.00000000       0.00000000       0.00000000       0.01692072
Cr       0.00000000       0.00000000       5.88242424       0.00000000       0.00000000      -0.01692072
2
Properties=species:S:1:pos:R:3:forces:R:3 energy=-11.217956453693354 pbc="F F F"
Cr       0.00000000       0.00000000       0.00000000       0.00000000       0.00000000       0.01343263
Cr       0.00000000       0.00000000       5.94121212       0.00000000       0.00000000      -0.01343263
2
Properties=species:S:1:pos:R:3:forces:R:3 energy=-11.217226054615065 pbc="F F F"
Cr       0.00000000       0.00000000       0.00000000       0.00000000       0.00000000       0.01175158
Cr       0.00000000       0.00000000       6.00000000       0.00000000       0.00000000      -0.01175158
