2
Properties=species:S:1:pos:R:3:forces:R:3 energy=10377.10015808425 pbc="F F F"
Cs       0.00000000       0.00000000       0.00000000       0.00000000       0.00000000 -175504.98437500
Cs       0.00000000       0.00000000       0.18000000       0.00000000       0.00000000  175504.98437500
2
Properties=species:S:1:pos:R:3:forces:R:3 energy=4168.44879089675 pbc="F F F"
Cs       0.00000000       0.00000000       0.00000000       0.00000000       0.00000000  -59788.74609375
Cs       0.00000000       0.00000000       0.23878788       0.00000000       0.00000000   59788.74609375
2
Properties=species:S:1:pos:R:3:forces:R:3 energy=1887.2904657014376 pbc="F F F"
Cs       0.00000000       0.00000000       0.00000000       0.00000000       0.00000000  -23996.17382812
Cs       0.00000000       0.00000000       0.29757576       0.00000000       0.00000000   23996.17382812
2
Properties=species:S:1:pos:R:3:forces:R:3 energy=927.5739129670626 pbc="F F F"
Cs       0.00000000       0.00000000       0.00000000       0.00000000       0.00000000  -10660.55273438
Cs       0.00000000       0.00000000       0.35636364       0.00000000       0.00000000   10660.55273438
2
Properties=species:S:1:pos:R:3:forces:R:3 energy=487.1050408967501 pbc="F F F"
Cs       0.00000000       0.00000000       0.00000000       0.00000000       0.00000000   -5082.86523438
Cs       0.00000000       0.00000000       0.41515152       0.00000000       0.00000000    5082.86523438
2
Properties=species:S:1:pos:R:3:forces:R:3 energy=271.70837341628135 pbc="F F F"
Cs       0.00000000       0.00000000       0.00000000       0.00000000       0.00000000   -2561.51049805
Cs       0.00000000       0.00000000       0.47393939       0.00000000       0.00000000    2561.51049805
2
Properties=species:S:1:pos:R:3:forces:R:3 energy=160.79814087312798 pbc="F F F"
Cs       0.00000000       0.00000000       0.00000000       0.00000000       0.00000000   -1353.18420410
Cs       0.00000000       0.00000000       0.53272727       0.00000000       0.00000000    1353.18420410
2
Properties=species:S:1:pos:R:3:forces:R:3 energy=101.0797265672793 pbc="F F F"
Cs       0.00000000       0.00000000       0.00000000       0.00000000       0.00000000    -745.15600586
Cs       0.00000000       0.00000000       0.59151515       0.00000000       0.00000000     745.15600586
2
Properties=species:S:1:pos:R:3:forces:R:3 energy=67.63488709132415 pbc="F F F"
Cs       0.00000000       0.00000000       0.00000000       0.00000000       0.00000000    -425.53591919
Cs       0.00000000       0.00000000       0.65030303       0.00000000       0.00000000     425.53591919
2
Properties=species:S:1:pos:R:3:forces:R:3 energy=48.256774301523215 pbc="F F F"
Cs       0.00000000       0.00000000       0.00000000       0.00000000       0.00000000    -250.60433960
Cs       0.00000000       0.00000000       0.70909091       0.00000000       0.00000000     250.60433960
2
Properties=species:S:1:pos:R:3:forces:R:3 energy=36.71057069220175 pbc="F F F"
Cs       0.00000000       0.00000000       0.00000000       0.00000000       0.00000000    -151.21720886
Cs       0.00000000       0.00000000       0.76787879       0.00000000       0.00000000     151.21720886
2
Properties=species:S:1:pos:R:3:forces:R:3 energy=29.684514409656494 pbc="F F F"
Cs       0.00000000       0.00000000       0.00000000       0.00000000       0.00000000     -92.80757904
Cs       0.00000000       0.00000000       0.82666667       0.00000000       0.00000000      92.80757904
2
Properties=species:S:1:pos:R:3:forces:R:3 energy=25.35153330795691 pbc="F F F"
Cs       0.00000000       0.00000000       0.00000000       0.00000000       0.00000000     -57.47613907
Cs       0.00000000       0.00000000       0.88545455       0.00000000       0.00000000      57.47613907
2
Properties=species:S:1:pos:R:3:forces:R:3 energy=22.664550212107688 pbc="F F F"
Cs       0.00000000       0.00000000       0.00000000       0.00000000       0.00000000     -35.65835190
Cs       0.00000000       0.00000000       0.94424242       0.00000000       0.00000000      35.65835190
2
Properties=species:S:1:pos:R:3:forces:R:3 energy=20.998433515053172 pbc="F F F"
Cs       0.00000000       0.00000000       0.00000000       0.00000000       0.00000000     -22.10782433
Cs       0.00000000       0.00000000       1.00303030       0.00000000       0.00000000      22.10782433
2
Properties=species:S:1:pos:R:3:forces:R:3 energy=19.961545415461288 pbc="F F F"
Cs       0.00000000       0.00000000       0.00000000       0.00000000       0.00000000     -13.89065742
Cs       0.00000000       0.00000000       1.06181818       0.00000000       0.00000000      13.89065742
2
Properties=species:S:1:pos:R:3:forces:R:3 energy=19.293773153256733 pbc="F F F"
Cs       0.00000000       0.00000000       0.00000000       0.00000000       0.00000000      -9.34048748
Cs       0.00000000       0.00000000       1.12060606       0.00000000       0.00000000       9.34048748
2
Properties=species:S:1:pos:R:3:forces:R:3 energy=18.81077339121877 pbc="F F F"
Cs       0.00000000       0.00000000       0.00000000       0.00000000       0.00000000      -7.48137283
Cs       0.00000000       0.00000000       1.17939394       0.00000000       0.00000000       7.48137283
2
Properties=species:S:1:pos:R:3:forces:R:3 energy=18.373883795050336 pbc="F F F"
Cs       0.00000000       0.00000000       0.00000000       0.00000000       0.00000000      -7.68214226
Cs       0.00000000       0.00000000       1.23818182       0.00000000       0.00000000       7.68214226
2
Properties=species:S:1:pos:R:3:forces:R:3 energy=17.87715496289596 pbc="F F F"
Cs       0.00000000       0.00000000       0.00000000       0.00000000       0.00000000      -9.43337345
Cs       0.00000000       0.00000000       1.29696970       0.00000000       0.00000000       9.43337345
2
Properties=species:S:1:pos:R:3:forces:R:3 energy=17.244630556486804 pbc="F F F"
Cs       0.00000000       0.00000000       0.00000000       0.00000000       0.00000000     -12.20753479
Cs       0.00000000       0.00000000       1.35575758       0.00000000       0.00000000      12.20753479
2
Properties=species:S:1:pos:R:3:forces:R:3 energy=16.433544007153806 pbc="F F F"
Cs       0.00000000       0.00000000       0.00000000       0.00000000       0.00000000     -15.40470314
Cs       0.00000000       0.00000000       1.41454545       0.00000000       0.00000000      15.40470314
2
Properties=species:S:1:pos:R:3:forces:R:3 energy=15.437411285595584 pbc="F F F"
Cs       0.00000000       0.00000000       0.00000000       0.00000000       0.00000000     -18.40329361
Cs       0.00000000       0.00000000       1.47333333       0.00000000       0.00000000      18.40329361
2
Properties=species:S:1:pos:R:3:forces:R:3 energy=14.28361906428398 pbc="F F F"
Cs       0.00000000       0.00000000       0.00000000       0.00000000       0.00000000     -20.70396233
Cs       0.00000000       0.00000000       1.53212121       0.00000000       0.00000000      20.70396233
2
Properties=species:S:1:pos:R:3:forces:R:3 energy=13.021453235850649 pbc="F F F"
Cs       0.00000000       0.00000000       0.00000000       0.00000000       0.00000000     -22.08064079
Cs       0.00000000       0.00000000       1.59090909       0.00000000       0.00000000      22.08064079
2
Properties=species:S:1:pos:R:3:forces:R:3 energy=11.703984830248833 pbc="F F F"
Cs       0.00000000       0.00000000       0.00000000       0.00000000       0.00000000     -22.62236595
Cs       0.00000000       0.00000000       1.64969697       0.00000000       0.00000000      22.62236595
2
Properties=species:S:1:pos:R:3:forces:R:3 energy=10.372200867000776 pbc="F F F"
Cs       0.00000000       0.00000000       0.00000000       0.00000000       0.00000000     -22.62388229
Cs       0.00000000       0.00000000       1.70848485       0.00000000       0.00000000      22.62388229
2
Properties=species:S:1:pos:R:3:forces:R:3 energy=9.048397307453206 pbc="F F F"
Cs       0.00000000       0.00000000       0.00000000       0.00000000       0.00000000     -22.39338303
Cs       0.00000000       0.00000000       1.76727273       0.00000000       0.00000000      22.39338303
2
Properties=species:S:1:pos:R:3:forces:R:3 energy=7.740864451942105 pbc="F F F"
Cs       0.00000000       0.00000000       0.00000000       0.00000000       0.00000000     -22.07302094
Cs       0.00000000       0.00000000       1.82606061       0.00000000       0.00000000      22.07302094
2
Properties=species:S:1:pos:R:3:forces:R:3 energy=6.457035246009104 pbc="F F F"
Cs       0.00000000       0.00000000       0.00000000       0.00000000       0.00000000     -21.54614067
Cs       0.00000000       0.00000000       1.88484848       0.00000000       0.00000000      21.54614067
2
Properties=species:S:1:pos:R:3:forces:R:3 energy=5.217980661093239 pbc="F F F"
Cs       0.00000000       0.00000000       0.00000000       0.00000000       0.00000000     -20.48731613
Cs       0.00000000       0.00000000       1.94363636       0.00000000       0.00000000      20.48731613
2
Properties=species:S:1:pos:R:3:forces:R:3 energy=4.065201751925025 pbc="F F F"
Cs       0.00000000       0.00000000       0.00000000       0.00000000       0.00000000     -18.57164383
Cs       0.00000000       0.00000000       2.00242424       0.00000000       0.00000000      18.57164383
2
Properties=species:S:1:pos:R:3:forces:R:3 energy=3.0524924430930134 pbc="F F F"
Cs       0.00000000       0.00000000       0.00000000       0.00000000       0.00000000     -15.74741840
Cs       0.00000000       0.00000000       2.06121212       0.00000000       0.00000000      15.74741840
2
Properties=species:S:1:pos:R:3:forces:R:3 energy=2.2248149150083605 pbc="F F F"
Cs       0.00000000       0.00000000       0.00000000       0.00000000       0.00000000     -12.36451054
Cs       0.00000000       0.00000000       2.12000000       0.00000000       0.00000000      12.36451054
2
Properties=species:S:1:pos:R:3:forces:R:3 energy=1.597849022951192 pbc="F F F"
Cs       0.00000000       0.00000000       0.00000000       0.00000000       0.00000000      -9.02384186
Cs       0.00000000       0.00000000       2.17878788       0.00000000       0.00000000       9.02384186
2
Properties=species:S:1:pos:R:3:forces:R:3 energy=1.1521536597352529 pbc="F F F"
Cs       0.00000000       0.00000000       0.00000000       0.00000000       0.00000000      -6.26898956
Cs       0.00000000       0.00000000       2.23757576       0.00000000       0.00000000       6.26898956
2
Properties=species:S:1:pos:R:3:forces:R:3 energy=0.8437535507311535 pbc="F F F"
Cs       0.00000000       0.00000000       0.00000000       0.00000000       0.00000000      -4.37248135
Cs       0.00000000       0.00000000       2.29636364       0.00000000       0.00000000       4.37248135
2
Properties=species:S:1:pos:R:3:forces:R:3 energy=0.6213565982871905 pbc="F F F"
Cs       0.00000000       0.00000000       0.00000000       0.00000000       0.00000000      -3.32208586
Cs       0.00000000       0.00000000       2.35515152       0.00000000       0.00000000       3.32208586
2
Properties=species:S:1:pos:R:3:forces:R:3 energy=0.4403459497132566 pbc="F F F"
Cs       0.00000000       0.00000000       0.00000000       0.00000000       0.00000000      -2.92314458
Cs       0.00000000       0.00000000       2.41393939       0.00000000       0.00000000       2.92314458
2
Properties=species:S:1:pos:R:3:forces:R:3 energy=0.27007441687627565 pbc="F F F"
Cs       0.00000000       0.00000000       0.00000000       0.00000000       0.00000000      -2.91243577
Cs       0.00000000       0.00000000       2.47272727       0.00000000       0.00000000       2.91243577
2
Properties=species:S:1:pos:R:3:forces:R:3 energy=0.09507527703461466 pbc="F F F"
Cs       0.00000000       0.00000000       0.00000000       0.00000000       0.00000000      -3.04970074
Cs       0.00000000       0.00000000       2.53151515       0.00000000       0.00000000       3.04970074
2
Properties=species:S:1:pos:R:3:forces:R:3 energy=-0.08823393758585205 pbc="F F F"
Cs       0.00000000       0.00000000       0.00000000       0.00000000       0.00000000      -3.17674661
Cs       0.00000000       0.00000000       2.59030303       0.00000000       0.00000000       3.17674661
2
Properties=species:S:1:pos:R:3:forces:R:3 energy=-0.2768441740247069 pbc="F F F"
Cs       0.00000000       0.00000000       0.00000000       0.00000000       0.00000000      -3.22456694
Cs       0.00000000       0.00000000       2.64909091       0.00000000       0.00000000       3.22456694
2
Properties=species:S:1:pos:R:3:forces:R:3 energy=-0.46557986018977005 pbc="F F F"
Cs       0.00000000       0.00000000       0.00000000       0.00000000       0.00000000      -3.18206501
Cs       0.00000000       0.00000000       2.70787879       0.00000000       0.00000000       3.18206501
2
Properties=species:S:1:pos:R:3:forces:R:3 energy=-0.6494605068233894 pbc="F F F"
Cs       0.00000000       0.00000000       0.00000000       0.00000000       0.00000000      -3.06230545
Cs       0.00000000       0.00000000       2.76666667       0.00000000       0.00000000       3.06230545
2
Properties=species:S:1:pos:R:3:forces:R:3 energy=-0.824462307434969 pbc="F F F"
Cs       0.00000000       0.00000000       0.00000000       0.00000000       0.00000000      -2.88261580
Cs       0.00000000       0.00000000       2.82545455       0.00000000       0.00000000       2.88261580
2
Properties=species:S:1:pos:R:3:forces:R:3 energy=-0.9874833856252432 pbc="F F F"
Cs       0.00000000       0.00000000       0.00000000       0.00000000       0.00000000      -2.65662670
Cs       0.00000000       0.00000000       2.88424242       0.00000000       0.00000000       2.65662670
2
Properties=species:S:1:pos:R:3:forces:R:3 energy=-1.1360831745689517 pbc="F F F"
Cs       0.00000000       0.00000000       0.00000000       0.00000000       0.00000000      -2.39305282
Cs       0.00000000       0.00000000       2.94303030       0.00000000       0.00000000       2.39305282
2
Properties=species:S:1:pos:R:3:forces:R:3 energy=-1.2682165795071854 pbc="F F F"
Cs       0.00000000       0.00000000       0.00000000       0.00000000       0.00000000      -2.09719253
Cs       0.00000000       0.00000000       3.00181818       0.00000000       0.00000000       2.09719253
2
Properties=species:S:1:pos:R:3:forces:R:3 energy=-1.3821021338570547 pbc="F F F"
Cs       0.00000000       0.00000000       0.00000000       0.00000000       0.00000000      -1.77284980
Cs       0.00000000       0.00000000       3.06060606       0.00000000       0.00000000       1.77284980
2
Properties=species:S:1:pos:R:3:forces:R:3 energy=-1.4761771733509965 pbc="F F F"
Cs       0.00000000       0.00000000       0.00000000       0.00000000       0.00000000      -1.42389071
Cs       0.00000000       0.00000000       3.11939394       0.00000000       0.00000000       1.42389071
2
Properties=species:S:1:pos:R:3:forces:R:3 energy=-1.5491401044414301 pbc="F F F"
Cs       0.00000000       0.00000000       0.00000000       0.00000000       0.00000000      -1.05566895
Cs       0.00000000       0.00000000       3.17818182       0.00000000       0.00000000       1.05566895
2
Properties=species:S:1:pos:R:3:forces:R:3 energy=-1.6000765110980364 pbc="F F F"
Cs       0.00000000       0.00000000       0.00000000       0.00000000       0.00000000      -0.67626721
Cs       0.00000000       0.00000000       3.23696970       0.00000000       0.00000000       0.67626721
2
Properties=species:S:1:pos:R:3:forces:R:3 energy=-1.6286634985369803 pbc="F F F"
Cs       0.00000000       0.00000000       0.00000000       0.00000000       0.00000000      -0.29763433
Cs       0.00000000       0.00000000       3.29575758       0.00000000       0.00000000       0.29763433
2
Properties=species:S:1:pos:R:3:forces:R:3 energy=-1.635401426576331 pbc="F F F"
Cs       0.00000000       0.00000000       0.00000000       0.00000000       0.00000000       0.06403728
Cs       0.00000000       0.00000000       3.35454545       0.00000000       0.00000000      -0.06403728
2
Properties=species:S:1:pos:R:3:forces:R:3 energy=-1.621845175657791 pbc="F F F"
Cs       0.00000000       0.00000000       0.00000000       0.00000000       0.00000000       0.38944289
Cs       0.00000000       0.00000000       3.41333333       0.00000000       0.00000000      -0.38944289
2
Properties=species:S:1:pos:R:3:forces:R:3 energy=-1.5907045274041418 pbc="F F F"
Cs       0.00000000       0.00000000       0.00000000       0.00000000       0.00000000       0.65928620
Cs       0.00000000       0.00000000       3.47212121       0.00000000       0.00000000      -0.65928620
2
Properties=species:S:1:pos:R:3:forces:R:3 energy=-1.5457135096539851 pbc="F F F"
Cs       0.00000000       0.00000000       0.00000000       0.00000000       0.00000000       0.85877079
Cs       0.00000000       0.00000000       3.53090909       0.00000000       0.00000000      -0.85877079
2
Properties=species:S:1:pos:R:3:forces:R:3 energy=-1.49124463995249 pbc="F F F"
Cs       0.00000000       0.00000000       0.00000000       0.00000000       0.00000000       0.98150027
Cs       0.00000000       0.00000000       3.58969697       0.00000000       0.00000000      -0.98150027
2
Properties=species:S:1:pos:R:3:forces:R:3 energy=-1.4317584138844246 pbc="F F F"
Cs       0.00000000       0.00000000       0.00000000       0.00000000       0.00000000       1.03073132
Cs       0.00000000       0.00000000       3.64848485       0.00000000       0.00000000      -1.03073132
2
Properties=species:S:1:pos:R:3:forces:R:3 energy=-1.3712840452479849 pbc="F F F"
Cs       0.00000000       0.00000000       0.00000000       0.00000000       0.00000000       1.01742125
Cs       0.00000000       0.00000000       3.70727273       0.00000000       0.00000000      -1.01742125
2
Properties=species:S:1:pos:R:3:forces:R:3 energy=-1.3130634991966394 pbc="F F F"
Cs       0.00000000       0.00000000       0.00000000       0.00000000       0.00000000       0.95670336
Cs       0.00000000       0.00000000       3.76606061       0.00000000       0.00000000      -0.95670336
2
Properties=species:S:1:pos:R:3:forces:R:3 energy=-1.259411554788397 pbc="F F F"
Cs       0.00000000       0.00000000       0.00000000       0.00000000       0.00000000       0.86465609
Cs       0.00000000       0.00000000       3.82484848       0.00000000       0.00000000      -0.86465609
2
Properties=species:S:1:pos:R:3:forces:R:3 energy=-1.211719857309696 pbc="F F F"
Cs       0.00000000       0.00000000       0.00000000       0.00000000       0.00000000       0.75625592
Cs       0.00000000       0.00000000       3.88363636       0.00000000       0.00000000      -0.75625592
2
Properties=species:S:1:pos:R:3:forces:R:3 energy=-1.1705623238379879 pbc="F F F"
Cs       0.00000000       0.00000000       0.00000000       0.00000000       0.00000000       0.64428645
Cs       0.00000000       0.00000000       3.94242424       0.00000000       0.00000000      -0.64428645
2
Properties=species:S:1:pos:R:3:forces:R:3 energy=-1.1358422443372225 pbc="F F F"
Cs       0.00000000       0.00000000       0.00000000       0.00000000       0.00000000       0.53866643
Cs       0.00000000       0.00000000       4.00121212       0.00000000       0.00000000      -0.53866643
2
Properties=species:S:1:pos:R:3:forces:R:3 energy=-1.1069706369699917 pbc="F F F"
Cs       0.00000000       0.00000000       0.00000000       0.00000000       0.00000000       0.44609684
Cs       0.00000000       0.00000000       4.06000000       0.00000000       0.00000000      -0.44609684
2
Properties=species:S:1:pos:R:3:forces:R:3 energy=-1.0830665482143749 pbc="F F F"
Cs       0.00000000       0.00000000       0.00000000       0.00000000       0.00000000       0.37000424
Cs       0.00000000       0.00000000       4.11878788       0.00000000       0.00000000      -0.37000424
2
Properties=species:S:1:pos:R:3:forces:R:3 energy=-1.0631325424014018 pbc="F F F"
Cs       0.00000000       0.00000000       0.00000000       0.00000000       0.00000000       0.31091252
Cs       0.00000000       0.00000000       4.17757576       0.00000000       0.00000000      -0.31091252
2
Properties=species:S:1:pos:R:3:forces:R:3 energy=-1.0462080317879028 pbc="F F F"
Cs       0.00000000       0.00000000       0.00000000       0.00000000       0.00000000       0.26721850
Cs       0.00000000       0.00000000       4.23636364       0.00000000       0.00000000      -0.26721850
2
Properties=species:S:1:pos:R:3:forces:R:3 energy=-1.0314643441730353 pbc="F F F"
Cs       0.00000000       0.00000000       0.00000000       0.00000000       0.00000000       0.23622917
Cs       0.00000000       0.00000000       4.29515152       0.00000000       0.00000000      -0.23622917
2
Properties=species:S:1:pos:R:3:forces:R:3 energy=-1.0182382539707797 pbc="F F F"
Cs       0.00000000       0.00000000       0.00000000       0.00000000       0.00000000       0.21522553
Cs       0.00000000       0.00000000       4.35393939       0.00000000       0.00000000      -0.21522553
2
Properties=species:S:1:pos:R:3:forces:R:3 energy=-1.0060027580950195 pbc="F F F"
Cs       0.00000000       0.00000000       0.00000000       0.00000000       0.00000000       0.20227656
Cs       0.00000000       0.00000000       4.41272727       0.00000000       0.00000000      -0.20227656
2
Properties=species:S:1:pos:R:3:forces:R:3 energy=-0.994311302435117 pbc="F F F"
Cs       0.00000000       0.00000000       0.00000000       0.00000000       0.00000000       0.19669506
Cs       0.00000000       0.00000000       4.47151515       0.00000000       0.00000000      -0.19669506
2
Properties=species:S:1:pos:R:3:forces:R:3 energy=-0.9827210088655944 pbc="F F F"
Cs       0.00000000       0.00000000       0.00000000       0.00000000       0.00000000       0.19905181
Cs       0.00000000       0.00000000       4.53030303       0.00000000       0.00000000      -0.19905181
2
Properties=species:S:1:pos:R:3:forces:R:3 energy=-0.9707233702594313 pbc="F F F"
Cs       0.00000000       0.00000000       0.00000000       0.00000000       0.00000000       0.21085532
Cs       0.00000000       0.00000000       4.58909091       0.00000000       0.00000000      -0.21085532
2
Properties=species:S:1:pos:R:3:forces:R:3 energy=-0.9577075733767183 pbc="F F F"
Cs       0.00000000       0.00000000       0.00000000       0.00000000       0.00000000       0.23398143
Cs       0.00000000       0.00000000       4.64787879       0.00000000       0.00000000      -0.23398143
2
Properties=species:S:1:pos:R:3:forces:R:3 energy=-0.9429594211493927 pbc="F F F"
Cs       0.00000000       0.00000000       0.00000000       0.00000000       0.00000000       0.26996925
Cs       0.00000000       0.00000000       4.70666667       0.00000000       0.00000000      -0.26996925
2
Properties=species:S:1:pos:R:3:forces:R:3 energy=-0.9257025074915581 pbc="F F F"
Cs       0.00000000       0.00000000       0.00000000       0.00000000       0.00000000       0.31933171
Cs       0.00000000       0.00000000       4.76545455       0.00000000       0.00000000      -0.31933171
2
Properties=species:S:1:pos:R:3:forces:R:3 energy=-0.9051699409102286 pbc="F F F"
Cs       0.00000000       0.00000000       0.00000000       0.00000000       0.00000000       0.38107607
Cs       0.00000000       0.00000000       4.82424242       0.00000000       0.00000000      -0.38107607
2
Properties=species:S:1:pos:R:3:forces:R:3 energy=-0.8807078210567438 pbc="F F F"
Cs       0.00000000       0.00000000       0.00000000       0.00000000       0.00000000       0.45252725
Cs       0.00000000       0.00000000       4.88303030       0.00000000       0.00000000      -0.45252725
2
Properties=species:S:1:pos:R:3:forces:R:3 energy=-0.8518530233485483 pbc="F F F"
Cs       0.00000000       0.00000000       0.00000000       0.00000000       0.00000000       0.52958781
Cs       0.00000000       0.00000000       4.94181818       0.00000000       0.00000000      -0.52958781
2
Properties=species:S:1:pos:R:3:forces:R:3 energy=-0.8184285287075402 pbc="F F F"
Cs       0.00000000       0.00000000       0.00000000       0.00000000       0.00000000       0.60710382
Cs       0.00000000       0.00000000       5.00060606       0.00000000       0.00000000      -0.60710382
2
Properties=species:S:1:pos:R:3:forces:R:3 energy=-0.7805724654461662 pbc="F F F"
Cs       0.00000000       0.00000000       0.00000000       0.00000000       0.00000000       0.67942160
Cs       0.00000000       0.00000000       5.05939394       0.00000000       0.00000000      -0.67942160
2
Properties=species:S:1:pos:R:3:forces:R:3 energy=-0.7387609371197524 pbc="F F F"
Cs       0.00000000       0.00000000       0.00000000       0.00000000       0.00000000       0.74069351
Cs       0.00000000       0.00000000       5.11818182       0.00000000       0.00000000      -0.74069351
2
Properties=species:S:1:pos:R:3:forces:R:3 energy=-0.6938186840562577 pbc="F F F"
Cs       0.00000000       0.00000000       0.00000000       0.00000000       0.00000000       0.78510207
Cs       0.00000000       0.00000000       5.17696970       0.00000000       0.00000000      -0.78510207
2
Properties=species:S:1:pos:R:3:forces:R:3 energy=-0.6468978537136713 pbc="F F F"
Cs       0.00000000       0.00000000       0.00000000       0.00000000       0.00000000       0.80708003
Cs       0.00000000       0.00000000       5.23575758       0.00000000       0.00000000      -0.80708003
2
Properties=species:S:1:pos:R:3:forces:R:3 energy=-0.5994668041123846 pbc="F F F"
Cs       0.00000000       0.00000000       0.00000000       0.00000000       0.00000000       0.80169320
Cs       0.00000000       0.00000000       5.29454545       0.00000000       0.00000000      -0.80169320
2
Properties=species:S:1:pos:R:3:forces:R:3 energy=-0.5532393411862124 pbc="F F F"
Cs       0.00000000       0.00000000       0.00000000       0.00000000       0.00000000       0.76557606
Cs       0.00000000       0.00000000       5.35333333       0.00000000       0.00000000      -0.76557606
2
Properties=species:S:1:pos:R:3:forces:R:3 energy=-0.5100593477542253 pbc="F F F"
Cs       0.00000000       0.00000000       0.00000000       0.00000000       0.00000000       0.69835544
Cs       0.00000000       0.00000000       5.41212121       0.00000000       0.00000000      -0.69835544
2
Properties=species:S:1:pos:R:3:forces:R:3 energy=-0.4716583753132528 pbc="F F F"
Cs       0.00000000       0.00000000       0.00000000       0.00000000       0.00000000       0.60432416
Cs       0.00000000       0.00000000       5.47090909       0.00000000       0.00000000      -0.60432416
2
Properties=species:S:1:pos:R:3:forces:R:3 energy=-0.43935169297056276 pbc="F F F"
Cs       0.00000000       0.00000000       0.00000000       0.00000000       0.00000000       0.49277586
Cs       0.00000000       0.00000000       5.52969697       0.00000000       0.00000000      -0.49277586
2
Properties=species:S:1:pos:R:3:forces:R:3 energy=-0.41381724599082637 pbc="F F F"
Cs       0.00000000       0.00000000       0.00000000       0.00000000       0.00000000       0.37618941
Cs       0.00000000       0.00000000       5.58848485       0.00000000       0.00000000      -0.37618941
2
Properties=species:S:1:pos:R:3:forces:R:3 energy=-0.39499299383615666 pbc="F F F"
Cs       0.00000000       0.00000000       0.00000000       0.00000000       0.00000000       0.26603031
Cs       0.00000000       0.00000000       5.64727273       0.00000000       0.00000000      -0.26603031
2
Properties=species:S:1:pos:R:3:forces:R:3 energy=-0.3822730482432549 pbc="F F F"
Cs       0.00000000       0.00000000       0.00000000       0.00000000       0.00000000       0.16963717
Cs       0.00000000       0.00000000       5.70606061       0.00000000       0.00000000      -0.16963717
2
Properties=species:S:1:pos:R:3:forces:R:3 energy=-0.3746931872706808 pbc="F F F"
Cs       0.00000000       0.00000000       0.00000000       0.00000000       0.00000000       0.09014341
Cs       0.00000000       0.00000000       5.76484848       0.00000000       0.00000000      -0.09014341
2
Properties=species:S:1:pos:R:3:forces:R:3 energy=-0.3713034678127224 pbc="F F F"
Cs       0.00000000       0.00000000       0.00000000       0.00000000       0.00000000       0.02884769
Cs       0.00000000       0.00000000       5.82363636       0.00000000       0.00000000      -0.02884769
2
Properties=species:S:1:pos:R:3:forces:R:3 energy=-0.3709456786671387 pbc="F F F"
Cs       0.00000000       0.00000000       0.00000000       0.00000000       0.00000000      -0.01282009
Cs       0.00000000       0.00000000       5.88242424       0.00000000       0.00000000       0.01282009
2
Properties=species:S:1:pos:R:3:forces:R:3 energy=-0.372381433985749 pbc="F F F"
Cs       0.00000000       0.00000000       0.00000000       0.00000000       0.00000000      -0.03254335
Cs       0.00000000       0.00000000       5.94121212       0.00000000       0.00000000       0.03254335
2
Properties=species:S:1:pos:R:3:forces:R:3 energy=-0.37427613180055985 pbc="F F F"
Cs       0.00000000       0.00000000       0.00000000       0.00000000       0.00000000      -0.02732364
Cs       0.00000000       0.00000000       6.00000000       0.00000000       0.00000000       0.02732364
