2
Properties=species:S:1:pos:R:3:forces:R:3 energy=3744.8142363949632 pbc="F F F"
Fe       0.00000000       0.00000000       0.00000000       0.00000000       0.00000000  -55377.93750000
Fe       0.00000000       0.00000000       0.18000000       0.00000000       0.00000000   55377.93750000
2
Properties=species:S:1:pos:R:3:forces:R:3 energy=1727.4332549496507 pbc="F F F"
Fe       0.00000000       0.00000000       0.00000000       0.00000000       0.00000000  -20214.42578125
Fe       0.00000000       0.00000000       0.23878788       0.00000000       0.00000000   20214.42578125
2
Properties=species:S:1:pos:R:3:forces:R:3 energy=934.0387237028186 pbc="F F F"
Fe       0.00000000       0.00000000       0.00000000       0.00000000       0.00000000   -8670.20703125
Fe       0.00000000       0.00000000       0.29757576       0.00000000       0.00000000    8670.20703125
2
Properties=species:S:1:pos:R:3:forces:R:3 energy=577.0572783903186 pbc="F F F"
Fe       0.00000000       0.00000000       0.00000000       0.00000000       0.00000000   -4115.22021484
Fe       0.00000000       0.00000000       0.35636364       0.00000000       0.00000000    4115.22021484
2
Properties=species:S:1:pos:R:3:forces:R:3 energy=402.42489314274803 pbc="F F F"
Fe       0.00000000       0.00000000       0.00000000       0.00000000       0.00000000   -2079.05078125
Fe       0.00000000       0.00000000       0.41515152       0.00000000       0.00000000    2079.05078125
2
Properties=species:S:1:pos:R:3:forces:R:3 energy=312.6664397862787 pbc="F F F"
Fe       0.00000000       0.00000000       0.00000000       0.00000000       0.00000000   -1087.10266113
Fe       0.00000000       0.00000000       0.47393939       0.00000000       0.00000000    1087.10266113
2
Properties=species:S:1:pos:R:3:forces:R:3 energy=265.1039092877075 pbc="F F F"
Fe       0.00000000       0.00000000       0.00000000       0.00000000       0.00000000    -591.17559814
Fe       0.00000000       0.00000000       0.53272727       0.00000000       0.00000000     591.17559814
2
Properties=species:S:1:pos:R:3:forces:R:3 energy=237.54205018852636 pbc="F F F"
Fe       0.00000000       0.00000000       0.00000000       0.00000000       0.00000000    -379.12802124
Fe       0.00000000       0.00000000       0.59151515       0.00000000       0.00000000     379.12802124
2
Properties=species:S:1:pos:R:3:forces:R:3 energy=220.2066315475431 pbc="F F F"
Fe       0.00000000       0.00000000       0.00000000       0.00000000       0.00000000    -209.47479248
Fe       0.00000000       0.00000000       0.65030303       0.00000000       0.00000000     209.47479248
2
Properties=species:S:1:pos:R:3:forces:R:3 energy=206.8552522448787 pbc="F F F"
Fe       0.00000000       0.00000000       0.00000000       0.00000000       0.00000000    -281.27563477
Fe       0.00000000       0.00000000       0.70909091       0.00000000       0.00000000     281.27563477
2
Properties=species:S:1:pos:R:3:forces:R:3 energy=184.90490448387223 pbc="F F F"
Fe       0.00000000       0.00000000       0.00000000       0.00000000       0.00000000    -469.86965942
Fe       0.00000000       0.00000000       0.76787879       0.00000000       0.00000000     469.86965942
2
Properties=species:S:1:pos:R:3:forces:R:3 energy=153.014554344816 pbc="F F F"
Fe       0.00000000       0.00000000       0.00000000       0.00000000       0.00000000    -611.14483643
Fe       0.00000000       0.00000000       0.82666667       0.00000000       0.00000000     611.14483643
2
Properties=species:S:1:pos:R:3:forces:R:3 energy=114.6239220068611 pbc="F F F"
Fe       0.00000000       0.00000000       0.00000000       0.00000000       0.00000000    -674.72888184
Fe       0.00000000       0.00000000       0.88545455       0.00000000       0.00000000     674.72888184
2
Properties=species:S:1:pos:R:3:forces:R:3 energy=75.97048766526 pbc="F F F"
Fe       0.00000000       0.00000000       0.00000000       0.00000000       0.00000000    -624.20587158
Fe       0.00000000       0.00000000       0.94424242       0.00000000       0.00000000     624.20587158
2
Properties=species:S:1:pos:R:3:forces:R:3 energy=43.350657143927265 pbc="F F F"
Fe       0.00000000       0.00000000       0.00000000       0.00000000       0.00000000    -458.53955078
Fe       0.00000000       0.00000000       1.00303030       0.00000000       0.00000000     458.53955078
2
Properties=species:S:1:pos:R:3:forces:R:3 energy=23.498797857817863 pbc="F F F"
Fe       0.00000000       0.00000000       0.00000000       0.00000000       0.00000000    -237.07829285
Fe       0.00000000       0.00000000       1.06181818       0.00000000       0.00000000     237.07829285
2
Properties=species:S:1:pos:R:3:forces:R:3 energy=12.79246571112056 pbc="F F F"
Fe       0.00000000       0.00000000       0.00000000       0.00000000       0.00000000    -141.51823425
Fe       0.00000000       0.00000000       1.12060606       0.00000000       0.00000000     141.51823425
2
Properties=species:S:1:pos:R:3:forces:R:3 energy=5.891559038785744 pbc="F F F"
Fe       0.00000000       0.00000000       0.00000000       0.00000000       0.00000000     -97.44731140
Fe       0.00000000       0.00000000       1.17939394       0.00000000       0.00000000      97.44731140
2
Properties=species:S:1:pos:R:3:forces:R:3 energy=1.0408279492328 pbc="F F F"
Fe       0.00000000       0.00000000       0.00000000       0.00000000       0.00000000     -69.48590088
Fe       0.00000000       0.00000000       1.23818182       0.00000000       0.00000000      69.48590088
2
Properties=species:S:1:pos:R:3:forces:R:3 energy=-2.493252277689644 pbc="F F F"
Fe       0.00000000       0.00000000       0.00000000       0.00000000       0.00000000     -52.16661835
Fe       0.00000000       0.00000000       1.29696970       0.00000000       0.00000000      52.16661835
2
Properties=species:S:1:pos:R:3:forces:R:3 energy=-5.12798461326714 pbc="F F F"
Fe       0.00000000       0.00000000       0.00000000       0.00000000       0.00000000     -36.64820099
Fe       0.00000000       0.00000000       1.35575758       0.00000000       0.00000000      36.64820099
2
Properties=species:S:1:pos:R:3:forces:R:3 energy=-6.722524607868782 pbc="F F F"
Fe       0.00000000       0.00000000       0.00000000       0.00000000       0.00000000     -17.98342323
Fe       0.00000000       0.00000000       1.41454545       0.00000000       0.00000000      17.98342323
2
Properties=species:S:1:pos:R:3:forces:R:3 energy=-7.404621085159616 pbc="F F F"
Fe       0.00000000       0.00000000       0.00000000       0.00000000       0.00000000      -6.93377638
Fe       0.00000000       0.00000000       1.47333333       0.00000000       0.00000000       6.93377638
2
Properties=species:S:1:pos:R:3:forces:R:3 energy=-7.697982255596969 pbc="F F F"
Fe       0.00000000       0.00000000       0.00000000       0.00000000       0.00000000      -3.95111728
Fe       0.00000000       0.00000000       1.53212121       0.00000000       0.00000000       3.95111728
2
Properties=species:S:1:pos:R:3:forces:R:3 energy=-7.931563172296033 pbc="F F F"
Fe       0.00000000       0.00000000       0.00000000       0.00000000       0.00000000      -4.24869299
Fe       0.00000000       0.00000000       1.59090909       0.00000000       0.00000000       4.24869299
2
Properties=species:S:1:pos:R:3:forces:R:3 energy=-8.208212746874976 pbc="F F F"
Fe       0.00000000       0.00000000       0.00000000       0.00000000       0.00000000      -5.14436293
Fe       0.00000000       0.00000000       1.64969697       0.00000000       0.00000000       5.14436293
2
Properties=species:S:1:pos:R:3:forces:R:3 energy=-8.527554338167436 pbc="F F F"
Fe       0.00000000       0.00000000       0.00000000       0.00000000       0.00000000      -5.61109066
Fe       0.00000000       0.00000000       1.70848485       0.00000000       0.00000000       5.61109066
2
Properties=species:S:1:pos:R:3:forces:R:3 energy=-8.85397331461637 pbc="F F F"
Fe       0.00000000       0.00000000       0.00000000       0.00000000       0.00000000      -5.37590504
Fe       0.00000000       0.00000000       1.76727273       0.00000000       0.00000000       5.37590504
2
Properties=species:S:1:pos:R:3:forces:R:3 energy=-9.147361853976482 pbc="F F F"
Fe       0.00000000       0.00000000       0.00000000       0.00000000       0.00000000      -4.52145576
Fe       0.00000000       0.00000000       1.82606061       0.00000000       0.00000000       4.52145576
2
Properties=species:S:1:pos:R:3:forces:R:3 energy=-9.378987592766945 pbc="F F F"
Fe       0.00000000       0.00000000       0.00000000       0.00000000       0.00000000      -3.33204818
Fe       0.00000000       0.00000000       1.88484848       0.00000000       0.00000000       3.33204818
2
Properties=species:S:1:pos:R:3:forces:R:3 energy=-9.539116104168093 pbc="F F F"
Fe       0.00000000       0.00000000       0.00000000       0.00000000       0.00000000      -2.13629889
Fe       0.00000000       0.00000000       1.94363636       0.00000000       0.00000000       2.13629889
2
Properties=species:S:1:pos:R:3:forces:R:3 energy=-9.633785732882426 pbc="F F F"
Fe       0.00000000       0.00000000       0.00000000       0.00000000       0.00000000      -1.11830342
Fe       0.00000000       0.00000000       2.00242424       0.00000000       0.00000000       1.11830342
2
Properties=species:S:1:pos:R:3:forces:R:3 energy=-9.6740310877108 pbc="F F F"
Fe       0.00000000       0.00000000       0.00000000       0.00000000       0.00000000      -0.27289942
Fe       0.00000000       0.00000000       2.06121212       0.00000000       0.00000000       0.27289942
2
Properties=species:S:1:pos:R:3:forces:R:3 energy=-9.66762166141296 pbc="F F F"
Fe       0.00000000       0.00000000       0.00000000       0.00000000       0.00000000       0.48127779
Fe       0.00000000       0.00000000       2.12000000       0.00000000       0.00000000      -0.48127779
2
Properties=species:S:1:pos:R:3:forces:R:3 energy=-9.618478390143059 pbc="F F F"
Fe       0.00000000       0.00000000       0.00000000       0.00000000       0.00000000       1.17975891
Fe       0.00000000       0.00000000       2.17878788       0.00000000       0.00000000      -1.17975891
2
Properties=species:S:1:pos:R:3:forces:R:3 energy=-9.53080327039776 pbc="F F F"
Fe       0.00000000       0.00000000       0.00000000       0.00000000       0.00000000       1.78076255
Fe       0.00000000       0.00000000       2.23757576       0.00000000       0.00000000      -1.78076255
2
Properties=species:S:1:pos:R:3:forces:R:3 energy=-9.412401588711129 pbc="F F F"
Fe       0.00000000       0.00000000       0.00000000       0.00000000       0.00000000       2.21465325
Fe       0.00000000       0.00000000       2.29636364       0.00000000       0.00000000      -2.21465325
2
Properties=species:S:1:pos:R:3:forces:R:3 energy=-9.274523514227353 pbc="F F F"
Fe       0.00000000       0.00000000       0.00000000       0.00000000       0.00000000       2.44030643
Fe       0.00000000       0.00000000       2.35515152       0.00000000       0.00000000      -2.44030643
2
Properties=species:S:1:pos:R:3:forces:R:3 energy=-9.129558809540011 pbc="F F F"
Fe       0.00000000       0.00000000       0.00000000       0.00000000       0.00000000       2.45891738
Fe       0.00000000       0.00000000       2.41393939       0.00000000       0.00000000      -2.45891738
2
Properties=species:S:1:pos:R:3:forces:R:3 energy=-8.988816954488506 pbc="F F F"
Fe       0.00000000       0.00000000       0.00000000       0.00000000       0.00000000       2.30515337
Fe       0.00000000       0.00000000       2.47272727       0.00000000       0.00000000      -2.30515337
2
Properties=species:S:1:pos:R:3:forces:R:3 energy=-8.860467346622281 pbc="F F F"
Fe       0.00000000       0.00000000       0.00000000       0.00000000       0.00000000       2.05476356
Fe       0.00000000       0.00000000       2.53151515       0.00000000       0.00000000      -2.05476356
2
Properties=species:S:1:pos:R:3:forces:R:3 energy=-8.74652392523927 pbc="F F F"
Fe       0.00000000       0.00000000       0.00000000       0.00000000       0.00000000       1.83982193
Fe       0.00000000       0.00000000       2.59030303       0.00000000       0.00000000      -1.83982193
2
Properties=species:S:1:pos:R:3:forces:R:3 energy=-8.64130495594142 pbc="F F F"
Fe       0.00000000       0.00000000       0.00000000       0.00000000       0.00000000       1.76413274
Fe       0.00000000       0.00000000       2.64909091       0.00000000       0.00000000      -1.76413274
2
Properties=species:S:1:pos:R:3:forces:R:3 energy=-8.536846678691802 pbc="F F F"
Fe       0.00000000       0.00000000       0.00000000       0.00000000       0.00000000       1.80328107
Fe       0.00000000       0.00000000       2.70787879       0.00000000       0.00000000      -1.80328107
2
Properties=species:S:1:pos:R:3:forces:R:3 energy=-8.428198319124162 pbc="F F F"
Fe       0.00000000       0.00000000       0.00000000       0.00000000       0.00000000       1.89792621
Fe       0.00000000       0.00000000       2.76666667       0.00000000       0.00000000      -1.89792621
2
Properties=species:S:1:pos:R:3:forces:R:3 energy=-8.313682263333279 pbc="F F F"
Fe       0.00000000       0.00000000       0.00000000       0.00000000       0.00000000       1.99310434
Fe       0.00000000       0.00000000       2.82545455       0.00000000       0.00000000      -1.99310434
2
Properties=species:S:1:pos:R:3:forces:R:3 energy=-8.194971187565635 pbc="F F F"
Fe       0.00000000       0.00000000       0.00000000       0.00000000       0.00000000       2.03221297
Fe       0.00000000       0.00000000       2.88424242       0.00000000       0.00000000      -2.03221297
2
Properties=species:S:1:pos:R:3:forces:R:3 energy=-8.076568534350793 pbc="F F F"
Fe       0.00000000       0.00000000       0.00000000       0.00000000       0.00000000       1.97947609
Fe       0.00000000       0.00000000       2.94303030       0.00000000       0.00000000      -1.97947609
2
Properties=species:S:1:pos:R:3:forces:R:3 energy=-7.964069652793521 pbc="F F F"
Fe       0.00000000       0.00000000       0.00000000       0.00000000       0.00000000       1.83394289
Fe       0.00000000       0.00000000       3.00181818       0.00000000       0.00000000      -1.83394289
2
Properties=species:S:1:pos:R:3:forces:R:3 energy=-7.862252750469105 pbc="F F F"
Fe       0.00000000       0.00000000       0.00000000       0.00000000       0.00000000       1.62177539
Fe       0.00000000       0.00000000       3.06060606       0.00000000       0.00000000      -1.62177539
2
Properties=species:S:1:pos:R:3:forces:R:3 energy=-7.773993533276933 pbc="F F F"
Fe       0.00000000       0.00000000       0.00000000       0.00000000       0.00000000       1.37854207
Fe       0.00000000       0.00000000       3.11939394       0.00000000       0.00000000      -1.37854207
2
Properties=species:S:1:pos:R:3:forces:R:3 energy=-7.700164976012077 pbc="F F F"
Fe       0.00000000       0.00000000       0.00000000       0.00000000       0.00000000       1.13516629
Fe       0.00000000       0.00000000       3.17818182       0.00000000       0.00000000      -1.13516629
2
Properties=species:S:1:pos:R:3:forces:R:3 energy=-7.640115076208386 pbc="F F F"
Fe       0.00000000       0.00000000       0.00000000       0.00000000       0.00000000       0.91240615
Fe       0.00000000       0.00000000       3.23696970       0.00000000       0.00000000      -0.91240615
2
Properties=species:S:1:pos:R:3:forces:R:3 energy=-7.59226063978566 pbc="F F F"
Fe       0.00000000       0.00000000       0.00000000       0.00000000       0.00000000       0.72143900
Fe       0.00000000       0.00000000       3.29575758       0.00000000       0.00000000      -0.72143900
2
Properties=species:S:1:pos:R:3:forces:R:3 energy=-7.554579292969707 pbc="F F F"
Fe       0.00000000       0.00000000       0.00000000       0.00000000       0.00000000       0.56663316
Fe       0.00000000       0.00000000       3.35454545       0.00000000       0.00000000      -0.56663316
2
Properties=species:S:1:pos:R:3:forces:R:3 energy=-7.524925853411424 pbc="F F F"
Fe       0.00000000       0.00000000       0.00000000       0.00000000       0.00000000       0.44811121
Fe       0.00000000       0.00000000       3.41333333       0.00000000       0.00000000      -0.44811121
2
Properties=species:S:1:pos:R:3:forces:R:3 energy=-7.501227934791968 pbc="F F F"
Fe       0.00000000       0.00000000       0.00000000       0.00000000       0.00000000       0.36344862
Fe       0.00000000       0.00000000       3.47212121       0.00000000       0.00000000      -0.36344862
2
Properties=species:S:1:pos:R:3:forces:R:3 energy=-7.481607686017923 pbc="F F F"
Fe       0.00000000       0.00000000       0.00000000       0.00000000       0.00000000       0.30863300
Fe       0.00000000       0.00000000       3.53090909       0.00000000       0.00000000      -0.30863300
2
Properties=species:S:1:pos:R:3:forces:R:3 energy=-7.4644537872965335 pbc="F F F"
Fe       0.00000000       0.00000000       0.00000000       0.00000000       0.00000000       0.27861473
Fe       0.00000000       0.00000000       3.58969697       0.00000000       0.00000000      -0.27861473
2
Properties=species:S:1:pos:R:3:forces:R:3 energy=-7.448473163960706 pbc="F F F"
Fe       0.00000000       0.00000000       0.00000000       0.00000000       0.00000000       0.26776510
Fe       0.00000000       0.00000000       3.64848485       0.00000000       0.00000000      -0.26776510
2
Properties=species:S:1:pos:R:3:forces:R:3 energy=-7.432708502730976 pbc="F F F"
Fe       0.00000000       0.00000000       0.00000000       0.00000000       0.00000000       0.27033639
Fe       0.00000000       0.00000000       3.70727273       0.00000000       0.00000000      -0.27033639
2
Properties=species:S:1:pos:R:3:forces:R:3 energy=-7.416531352583897 pbc="F F F"
Fe       0.00000000       0.00000000       0.00000000       0.00000000       0.00000000       0.28094420
Fe       0.00000000       0.00000000       3.76606061       0.00000000       0.00000000      -0.28094420
2
Properties=species:S:1:pos:R:3:forces:R:3 energy=-7.399610062620856 pbc="F F F"
Fe       0.00000000       0.00000000       0.00000000       0.00000000       0.00000000       0.29497531
Fe       0.00000000       0.00000000       3.82484848       0.00000000       0.00000000      -0.29497531
2
Properties=species:S:1:pos:R:3:forces:R:3 energy=-7.3818531049705065 pbc="F F F"
Fe       0.00000000       0.00000000       0.00000000       0.00000000       0.00000000       0.30885565
Fe       0.00000000       0.00000000       3.88363636       0.00000000       0.00000000      -0.30885565
2
Properties=species:S:1:pos:R:3:forces:R:3 energy=-7.363347610312691 pbc="F F F"
Fe       0.00000000       0.00000000       0.00000000       0.00000000       0.00000000       0.32014441
Fe       0.00000000       0.00000000       3.94242424       0.00000000       0.00000000      -0.32014441
2
Properties=species:S:1:pos:R:3:forces:R:3 energy=-7.3442906114608215 pbc="F F F"
Fe       0.00000000       0.00000000       0.00000000       0.00000000       0.00000000       0.32745135
Fe       0.00000000       0.00000000       4.00121212       0.00000000       0.00000000      -0.32745135
2
Properties=species:S:1:pos:R:3:forces:R:3 energy=-7.324936104933848 pbc="F F F"
Fe       0.00000000       0.00000000       0.00000000       0.00000000       0.00000000       0.33023098
Fe       0.00000000       0.00000000       4.06000000       0.00000000       0.00000000      -0.33023098
2
Properties=species:S:1:pos:R:3:forces:R:3 energy=-7.30555203740954 pbc="F F F"
Fe       0.00000000       0.00000000       0.00000000       0.00000000       0.00000000       0.32851177
Fe       0.00000000       0.00000000       4.11878788       0.00000000       0.00000000      -0.32851177
2
Properties=species:S:1:pos:R:3:forces:R:3 energy=-7.2863926238267265 pbc="F F F"
Fe       0.00000000       0.00000000       0.00000000       0.00000000       0.00000000       0.32263592
Fe       0.00000000       0.00000000       4.17757576       0.00000000       0.00000000      -0.32263592
2
Properties=species:S:1:pos:R:3:forces:R:3 energy=-7.267690041580814 pbc="F F F"
Fe       0.00000000       0.00000000       0.00000000       0.00000000       0.00000000       0.31304857
Fe       0.00000000       0.00000000       4.23636364       0.00000000       0.00000000      -0.31304857
2
Properties=species:S:1:pos:R:3:forces:R:3 energy=-7.249649567117545 pbc="F F F"
Fe       0.00000000       0.00000000       0.00000000       0.00000000       0.00000000       0.30017555
Fe       0.00000000       0.00000000       4.29515152       0.00000000       0.00000000      -0.30017555
2
Properties=species:S:1:pos:R:3:forces:R:3 energy=-7.2324538231179005 pbc="F F F"
Fe       0.00000000       0.00000000       0.00000000       0.00000000       0.00000000       0.28440729
Fe       0.00000000       0.00000000       4.35393939       0.00000000       0.00000000      -0.28440729
2
Properties=species:S:1:pos:R:3:forces:R:3 energy=-7.216259616532059 pbc="F F F"
Fe       0.00000000       0.00000000       0.00000000       0.00000000       0.00000000       0.26615366
Fe       0.00000000       0.00000000       4.41272727       0.00000000       0.00000000      -0.26615366
2
Properties=species:S:1:pos:R:3:forces:R:3 energy=-7.201198377402681 pbc="F F F"
Fe       0.00000000       0.00000000       0.00000000       0.00000000       0.00000000       0.24597232
Fe       0.00000000       0.00000000       4.47151515       0.00000000       0.00000000      -0.24597232
2
Properties=species:S:1:pos:R:3:forces:R:3 energy=-7.187360795537718 pbc="F F F"
Fe       0.00000000       0.00000000       0.00000000       0.00000000       0.00000000       0.22467108
Fe       0.00000000       0.00000000       4.53030303       0.00000000       0.00000000      -0.22467108
2
Properties=species:S:1:pos:R:3:forces:R:3 energy=-7.17478376534128 pbc="F F F"
Fe       0.00000000       0.00000000       0.00000000       0.00000000       0.00000000       0.20331965
Fe       0.00000000       0.00000000       4.58909091       0.00000000       0.00000000      -0.20331965
2
Properties=species:S:1:pos:R:3:forces:R:3 energy=-7.1634331151378055 pbc="F F F"
Fe       0.00000000       0.00000000       0.00000000       0.00000000       0.00000000       0.18313783
Fe       0.00000000       0.00000000       4.64787879       0.00000000       0.00000000      -0.18313783
2
Properties=species:S:1:pos:R:3:forces:R:3 energy=-7.153205530359807 pbc="F F F"
Fe       0.00000000       0.00000000       0.00000000       0.00000000       0.00000000       0.16526382
Fe       0.00000000       0.00000000       4.70666667       0.00000000       0.00000000      -0.16526382
2
Properties=species:S:1:pos:R:3:forces:R:3 energy=-7.14394029391097 pbc="F F F"
Fe       0.00000000       0.00000000       0.00000000       0.00000000       0.00000000       0.15050095
Fe       0.00000000       0.00000000       4.76545455       0.00000000       0.00000000      -0.15050095
2
Properties=species:S:1:pos:R:3:forces:R:3 energy=-7.135443185044847 pbc="F F F"
Fe       0.00000000       0.00000000       0.00000000       0.00000000       0.00000000       0.13913089
Fe       0.00000000       0.00000000       4.82424242       0.00000000       0.00000000      -0.13913089
2
Properties=species:S:1:pos:R:3:forces:R:3 energy=-7.127520767290754 pbc="F F F"
Fe       0.00000000       0.00000000       0.00000000       0.00000000       0.00000000       0.13089323
Fe       0.00000000       0.00000000       4.88303030       0.00000000       0.00000000      -0.13089323
2
Properties=species:S:1:pos:R:3:forces:R:3 energy=-7.120005613305813 pbc="F F F"
Fe       0.00000000       0.00000000       0.00000000       0.00000000       0.00000000       0.12509580
Fe       0.00000000       0.00000000       4.94181818       0.00000000       0.00000000      -0.12509580
2
Properties=species:S:1:pos:R:3:forces:R:3 energy=-7.112781653272072 pbc="F F F"
Fe       0.00000000       0.00000000       0.00000000       0.00000000       0.00000000       0.12082954
Fe       0.00000000       0.00000000       5.00060606       0.00000000       0.00000000      -0.12082954
2
Properties=species:S:1:pos:R:3:forces:R:3 energy=-7.1057870929402505 pbc="F F F"
Fe       0.00000000       0.00000000       0.00000000       0.00000000       0.00000000       0.11716832
Fe       0.00000000       0.00000000       5.05939394       0.00000000       0.00000000      -0.11716832
2
Properties=species:S:1:pos:R:3:forces:R:3 energy=-7.099009124071494 pbc="F F F"
Fe       0.00000000       0.00000000       0.00000000       0.00000000       0.00000000       0.11332683
Fe       0.00000000       0.00000000       5.11818182       0.00000000       0.00000000      -0.11332683
2
Properties=species:S:1:pos:R:3:forces:R:3 energy=-7.0924773643426615 pbc="F F F"
Fe       0.00000000       0.00000000       0.00000000       0.00000000       0.00000000       0.10874129
Fe       0.00000000       0.00000000       5.17696970       0.00000000       0.00000000      -0.10874129
2
Properties=species:S:1:pos:R:3:forces:R:3 energy=-7.086245758125162 pbc="F F F"
Fe       0.00000000       0.00000000       0.00000000       0.00000000       0.00000000       0.10308376
Fe       0.00000000       0.00000000       5.23575758       0.00000000       0.00000000      -0.10308376
2
Properties=species:S:1:pos:R:3:forces:R:3 energy=-7.080381217924354 pbc="F F F"
Fe       0.00000000       0.00000000       0.00000000       0.00000000       0.00000000       0.09624420
Fe       0.00000000       0.00000000       5.29454545       0.00000000       0.00000000      -0.09624420
2
Properties=species:S:1:pos:R:3:forces:R:3 energy=-7.074951269379033 pbc="F F F"
Fe       0.00000000       0.00000000       0.00000000       0.00000000       0.00000000       0.08829667
Fe       0.00000000       0.00000000       5.35333333       0.00000000       0.00000000      -0.08829667
2
Properties=species:S:1:pos:R:3:forces:R:3 energy=-7.0700169335500975 pbc="F F F"
Fe       0.00000000       0.00000000       0.00000000       0.00000000       0.00000000       0.07943971
Fe       0.00000000       0.00000000       5.41212121       0.00000000       0.00000000      -0.07943971
2
Properties=species:S:1:pos:R:3:forces:R:3 energy=-7.065623272540766 pbc="F F F"
Fe       0.00000000       0.00000000       0.00000000       0.00000000       0.00000000       0.06996594
Fe       0.00000000       0.00000000       5.47090909       0.00000000       0.00000000      -0.06996594
2
Properties=species:S:1:pos:R:3:forces:R:3 energy=-7.061796072227311 pbc="F F F"
Fe       0.00000000       0.00000000       0.00000000       0.00000000       0.00000000       0.06020007
Fe       0.00000000       0.00000000       5.52969697       0.00000000       0.00000000      -0.06020007
2
Properties=species:S:1:pos:R:3:forces:R:3 energy=-7.058544275546095 pbc="F F F"
Fe       0.00000000       0.00000000       0.00000000       0.00000000       0.00000000       0.05047806
Fe       0.00000000       0.00000000       5.58848485       0.00000000       0.00000000      -0.05047806
2
Properties=species:S:1:pos:R:3:forces:R:3 energy=-7.055853858054331 pbc="F F F"
Fe       0.00000000       0.00000000       0.00000000       0.00000000       0.00000000       0.04113097
Fe       0.00000000       0.00000000       5.64727273       0.00000000       0.00000000      -0.04113097
2
Properties=species:S:1:pos:R:3:forces:R:3 energy=-7.053695431982037 pbc="F F F"
Fe       0.00000000       0.00000000       0.00000000       0.00000000       0.00000000       0.03246833
Fe       0.00000000       0.00000000       5.70606061       0.00000000       0.00000000      -0.03246833
2
Properties=species:S:1:pos:R:3:forces:R:3 energy=-7.052016671482444 pbc="F F F"
Fe       0.00000000       0.00000000       0.00000000       0.00000000       0.00000000       0.02476106
Fe       0.00000000       0.00000000       5.76484848       0.00000000       0.00000000      -0.02476106
2
Properties=species:S:1:pos:R:3:forces:R:3 energy=-7.050759547669813 pbc="F F F"
Fe       0.00000000       0.00000000       0.00000000       0.00000000       0.00000000       0.01827255
Fe       0.00000000       0.00000000       5.82363636       0.00000000       0.00000000      -0.01827255
2
Properties=species:S:1:pos:R:3:forces:R:3 energy=-7.049841670197739 pbc="F F F"
Fe       0.00000000       0.00000000       0.00000000       0.00000000       0.00000000       0.01323819
Fe       0.00000000       0.00000000       5.88242424       0.00000000       0.00000000      -0.01323819
2
Properties=species:S:1:pos:R:3:forces:R:3 energy=-7.04917019473229 pbc="F F F"
Fe       0.00000000       0.00000000       0.00000000       0.00000000       0.00000000       0.00986832
Fe       0.00000000       0.00000000       5.94121212       0.00000000       0.00000000      -0.00986832
2
Properties=species:S:1:pos:R:3:forces:R:3 energy=-7.048644203178025 pbc="F F F"
Fe       0.00000000       0.00000000       0.00000000       0.00000000       0.00000000       0.00836448
Fe       0.00000000       0.00000000       6.00000000       0.00000000       0.00000000      -0.00836448
