2
Properties=species:S:1:pos:R:3:forces:R:3 energy=4631.738089235283 pbc="F F F"
Ga       0.00000000       0.00000000       0.00000000       0.00000000       0.00000000  -72939.28906250
Ga       0.00000000       0.00000000       0.18000000       0.00000000       0.00000000   72939.28906250
2
Properties=species:S:1:pos:R:3:forces:R:3 energy=1992.2473665790335 pbc="F F F"
Ga       0.00000000       0.00000000       0.00000000       0.00000000       0.00000000  -26219.34179688
Ga       0.00000000       0.00000000       0.23878788       0.00000000       0.00000000   26219.34179688
2
Properties=species:S:1:pos:R:3:forces:R:3 energy=969.1873690236075 pbc="F F F"
Ga       0.00000000       0.00000000       0.00000000       0.00000000       0.00000000  -11095.28125000
Ga       0.00000000       0.00000000       0.29757576       0.00000000       0.00000000   11095.28125000
2
Properties=species:S:1:pos:R:3:forces:R:3 energy=514.8470369923575 pbc="F F F"
Ga       0.00000000       0.00000000       0.00000000       0.00000000       0.00000000   -5203.16699219
Ga       0.00000000       0.00000000       0.35636364       0.00000000       0.00000000    5203.16699219
2
Properties=species:S:1:pos:R:3:forces:R:3 energy=294.9135042838494 pbc="F F F"
Ga       0.00000000       0.00000000       0.00000000       0.00000000       0.00000000   -2608.85815430
Ga       0.00000000       0.00000000       0.41515152       0.00000000       0.00000000    2608.85815430
2
Properties=species:S:1:pos:R:3:forces:R:3 energy=182.26599758265354 pbc="F F F"
Ga       0.00000000       0.00000000       0.00000000       0.00000000       0.00000000   -1367.71289062
Ga       0.00000000       0.00000000       0.47393939       0.00000000       0.00000000    1367.71289062
2
Properties=species:S:1:pos:R:3:forces:R:3 energy=122.32613248935579 pbc="F F F"
Ga       0.00000000       0.00000000       0.00000000       0.00000000       0.00000000    -740.28332520
Ga       0.00000000       0.00000000       0.53272727       0.00000000       0.00000000     740.28332520
2
Properties=species:S:1:pos:R:3:forces:R:3 energy=89.39456819948279 pbc="F F F"
Ga       0.00000000       0.00000000       0.00000000       0.00000000       0.00000000    -415.51730347
Ga       0.00000000       0.00000000       0.59151515       0.00000000       0.00000000     415.51730347
2
Properties=species:S:1:pos:R:3:forces:R:3 energy=70.38974648232767 pbc="F F F"
Ga       0.00000000       0.00000000       0.00000000       0.00000000       0.00000000    -250.06231689
Ga       0.00000000       0.00000000       0.65030303       0.00000000       0.00000000     250.06231689
2
Properties=species:S:1:pos:R:3:forces:R:3 energy=58.4087971818425 pbc="F F F"
Ga       0.00000000       0.00000000       0.00000000       0.00000000       0.00000000    -165.87928772
Ga       0.00000000       0.00000000       0.70909091       0.00000000       0.00000000     165.87928772
2
Properties=species:S:1:pos:R:3:forces:R:3 energy=50.34251314787482 pbc="F F F"
Ga       0.00000000       0.00000000       0.00000000       0.00000000       0.00000000    -111.99311066
Ga       0.00000000       0.00000000       0.76787879       0.00000000       0.00000000     111.99311066
2
Properties=species:S:1:pos:R:3:forces:R:3 energy=44.518824868877935 pbc="F F F"
Ga       0.00000000       0.00000000       0.00000000       0.00000000       0.00000000     -94.39781189
Ga       0.00000000       0.00000000       0.82666667       0.00000000       0.00000000      94.39781189
2
Properties=species:S:1:pos:R:3:forces:R:3 energy=38.50612986682451 pbc="F F F"
Ga       0.00000000       0.00000000       0.00000000       0.00000000       0.00000000    -112.87940979
Ga       0.00000000       0.00000000       0.88545455       0.00000000       0.00000000     112.87940979
2
Properties=species:S:1:pos:R:3:forces:R:3 energy=31.310661410899538 pbc="F F F"
Ga       0.00000000       0.00000000       0.00000000       0.00000000       0.00000000    -128.97941589
Ga       0.00000000       0.00000000       0.94424242       0.00000000       0.00000000     128.97941589
2
Properties=species:S:1:pos:R:3:forces:R:3 energy=23.802082768138824 pbc="F F F"
Ga       0.00000000       0.00000000       0.00000000       0.00000000       0.00000000    -122.46492004
Ga       0.00000000       0.00000000       1.00303030       0.00000000       0.00000000     122.46492004
2
Properties=species:S:1:pos:R:3:forces:R:3 energy=17.27094040329602 pbc="F F F"
Ga       0.00000000       0.00000000       0.00000000       0.00000000       0.00000000     -97.97442627
Ga       0.00000000       0.00000000       1.06181818       0.00000000       0.00000000      97.97442627
2
Properties=species:S:1:pos:R:3:forces:R:3 energy=12.334404710422051 pbc="F F F"
Ga       0.00000000       0.00000000       0.00000000       0.00000000       0.00000000     -70.60126495
Ga       0.00000000       0.00000000       1.12060606       0.00000000       0.00000000      70.60126495
2
Properties=species:S:1:pos:R:3:forces:R:3 energy=8.833860640568679 pbc="F F F"
Ga       0.00000000       0.00000000       0.00000000       0.00000000       0.00000000     -49.77137756
Ga       0.00000000       0.00000000       1.17939394       0.00000000       0.00000000      49.77137756
2
Properties=species:S:1:pos:R:3:forces:R:3 energy=6.3629333574351135 pbc="F F F"
Ga       0.00000000       0.00000000       0.00000000       0.00000000       0.00000000     -35.05969620
Ga       0.00000000       0.00000000       1.23818182       0.00000000       0.00000000      35.05969620
2
Properties=species:S:1:pos:R:3:forces:R:3 energy=4.625937645758804 pbc="F F F"
Ga       0.00000000       0.00000000       0.00000000       0.00000000       0.00000000     -24.73713112
Ga       0.00000000       0.00000000       1.29696970       0.00000000       0.00000000      24.73713112
2
Properties=species:S:1:pos:R:3:forces:R:3 energy=3.3856619216628436 pbc="F F F"
Ga       0.00000000       0.00000000       0.00000000       0.00000000       0.00000000     -17.93189430
Ga       0.00000000       0.00000000       1.35575758       0.00000000       0.00000000      17.93189430
2
Properties=species:S:1:pos:R:3:forces:R:3 energy=2.468627718000546 pbc="F F F"
Ga       0.00000000       0.00000000       0.00000000       0.00000000       0.00000000     -13.63078785
Ga       0.00000000       0.00000000       1.41454545       0.00000000       0.00000000      13.63078785
2
Properties=species:S:1:pos:R:3:forces:R:3 energy=1.7484713101778013 pbc="F F F"
Ga       0.00000000       0.00000000       0.00000000       0.00000000       0.00000000     -11.08455658
Ga       0.00000000       0.00000000       1.47333333       0.00000000       0.00000000      11.08455658
2
Properties=species:S:1:pos:R:3:forces:R:3 energy=1.1482225304355953 pbc="F F F"
Ga       0.00000000       0.00000000       0.00000000       0.00000000       0.00000000      -9.42668724
Ga       0.00000000       0.00000000       1.53212121       0.00000000       0.00000000       9.42668724
2
Properties=species:S:1:pos:R:3:forces:R:3 energy=0.6332300509752146 pbc="F F F"
Ga       0.00000000       0.00000000       0.00000000       0.00000000       0.00000000      -8.13409710
Ga       0.00000000       0.00000000       1.59090909       0.00000000       0.00000000       8.13409710
2
Properties=species:S:1:pos:R:3:forces:R:3 energy=0.18764422739422687 pbc="F F F"
Ga       0.00000000       0.00000000       0.00000000       0.00000000       0.00000000      -7.06044436
Ga       0.00000000       0.00000000       1.64969697       0.00000000       0.00000000       7.06044436
2
Properties=species:S:1:pos:R:3:forces:R:3 energy=-0.20110543517748172 pbc="F F F"
Ga       0.00000000       0.00000000       0.00000000       0.00000000       0.00000000      -6.19923210
Ga       0.00000000       0.00000000       1.70848485       0.00000000       0.00000000       6.19923210
2
Properties=species:S:1:pos:R:3:forces:R:3 energy=-0.5447124462966899 pbc="F F F"
Ga       0.00000000       0.00000000       0.00000000       0.00000000       0.00000000      -5.51406765
Ga       0.00000000       0.00000000       1.76727273       0.00000000       0.00000000       5.51406765
2
Properties=species:S:1:pos:R:3:forces:R:3 energy=-0.8514716365003286 pbc="F F F"
Ga       0.00000000       0.00000000       0.00000000       0.00000000       0.00000000      -4.93414927
Ga       0.00000000       0.00000000       1.82606061       0.00000000       0.00000000       4.93414927
2
Properties=species:S:1:pos:R:3:forces:R:3 energy=-1.1258319404879091 pbc="F F F"
Ga       0.00000000       0.00000000       0.00000000       0.00000000       0.00000000      -4.40534401
Ga       0.00000000       0.00000000       1.88484848       0.00000000       0.00000000       4.40534401
2
Properties=species:S:1:pos:R:3:forces:R:3 energy=-1.3698694294665879 pbc="F F F"
Ga       0.00000000       0.00000000       0.00000000       0.00000000       0.00000000      -3.89911795
Ga       0.00000000       0.00000000       1.94363636       0.00000000       0.00000000       3.89911795
2
Properties=species:S:1:pos:R:3:forces:R:3 energy=-1.584418707511361 pbc="F F F"
Ga       0.00000000       0.00000000       0.00000000       0.00000000       0.00000000      -3.40064764
Ga       0.00000000       0.00000000       2.00242424       0.00000000       0.00000000       3.40064764
2
Properties=species:S:1:pos:R:3:forces:R:3 energy=-1.7697771257719261 pbc="F F F"
Ga       0.00000000       0.00000000       0.00000000       0.00000000       0.00000000      -2.90641069
Ga       0.00000000       0.00000000       2.06121212       0.00000000       0.00000000       2.90641069
2
Properties=species:S:1:pos:R:3:forces:R:3 energy=-1.9263551293358028 pbc="F F F"
Ga       0.00000000       0.00000000       0.00000000       0.00000000       0.00000000      -2.42319560
Ga       0.00000000       0.00000000       2.12000000       0.00000000       0.00000000       2.42319560
2
Properties=species:S:1:pos:R:3:forces:R:3 energy=-2.055138012995514 pbc="F F F"
Ga       0.00000000       0.00000000       0.00000000       0.00000000       0.00000000      -1.96309710
Ga       0.00000000       0.00000000       2.17878788       0.00000000       0.00000000       1.96309710
2
Properties=species:S:1:pos:R:3:forces:R:3 energy=-2.1579052738449547 pbc="F F F"
Ga       0.00000000       0.00000000       0.00000000       0.00000000       0.00000000      -1.54068530
Ga       0.00000000       0.00000000       2.23757576       0.00000000       0.00000000       1.54068530
2
Properties=species:S:1:pos:R:3:forces:R:3 energy=-2.237330999340436 pbc="F F F"
Ga       0.00000000       0.00000000       0.00000000       0.00000000       0.00000000      -1.17149043
Ga       0.00000000       0.00000000       2.29636364       0.00000000       0.00000000       1.17149043
2
Properties=species:S:1:pos:R:3:forces:R:3 energy=-2.296919056628986 pbc="F F F"
Ga       0.00000000       0.00000000       0.00000000       0.00000000       0.00000000      -0.86702007
Ga       0.00000000       0.00000000       2.35515152       0.00000000       0.00000000       0.86702007
2
Properties=species:S:1:pos:R:3:forces:R:3 energy=-2.3405763811444746 pbc="F F F"
Ga       0.00000000       0.00000000       0.00000000       0.00000000       0.00000000      -0.62872636
Ga       0.00000000       0.00000000       2.41393939       0.00000000       0.00000000       0.62872636
2
Properties=species:S:1:pos:R:3:forces:R:3 energy=-2.371939425946638 pbc="F F F"
Ga       0.00000000       0.00000000       0.00000000       0.00000000       0.00000000      -0.44613251
Ga       0.00000000       0.00000000       2.47272727       0.00000000       0.00000000       0.44613251
2
Properties=species:S:1:pos:R:3:forces:R:3 energy=-2.3937559701837987 pbc="F F F"
Ga       0.00000000       0.00000000       0.00000000       0.00000000       0.00000000      -0.30047911
Ga       0.00000000       0.00000000       2.53151515       0.00000000       0.00000000       0.30047911
2
Properties=species:S:1:pos:R:3:forces:R:3 energy=-2.4075855711547662 pbc="F F F"
Ga       0.00000000       0.00000000       0.00000000       0.00000000       0.00000000      -0.17116234
Ga       0.00000000       0.00000000       2.59030303       0.00000000       0.00000000       0.17116234
2
Properties=species:S:1:pos:R:3:forces:R:3 energy=-2.413868102658954 pbc="F F F"
Ga       0.00000000       0.00000000       0.00000000       0.00000000       0.00000000      -0.04147469
Ga       0.00000000       0.00000000       2.64909091       0.00000000       0.00000000       0.04147469
2
Properties=species:S:1:pos:R:3:forces:R:3 energy=-2.4122690871739603 pbc="F F F"
Ga       0.00000000       0.00000000       0.00000000       0.00000000       0.00000000       0.09778772
Ga       0.00000000       0.00000000       2.70787879       0.00000000       0.00000000      -0.09778772
2
Properties=species:S:1:pos:R:3:forces:R:3 energy=-2.4021610145230143 pbc="F F F"
Ga       0.00000000       0.00000000       0.00000000       0.00000000       0.00000000       0.24749185
Ga       0.00000000       0.00000000       2.76666667       0.00000000       0.00000000      -0.24749185
2
Properties=species:S:1:pos:R:3:forces:R:3 energy=-2.38307125109504 pbc="F F F"
Ga       0.00000000       0.00000000       0.00000000       0.00000000       0.00000000       0.40213528
Ga       0.00000000       0.00000000       2.82545455       0.00000000       0.00000000      -0.40213528
2
Properties=species:S:1:pos:R:3:forces:R:3 energy=-2.354936312698047 pbc="F F F"
Ga       0.00000000       0.00000000       0.00000000       0.00000000       0.00000000       0.55400336
Ga       0.00000000       0.00000000       2.88424242       0.00000000       0.00000000      -0.55400336
2
Properties=species:S:1:pos:R:3:forces:R:3 energy=-2.3180993534282806 pbc="F F F"
Ga       0.00000000       0.00000000       0.00000000       0.00000000       0.00000000       0.69757295
Ga       0.00000000       0.00000000       2.94303030       0.00000000       0.00000000      -0.69757295
2
Properties=species:S:1:pos:R:3:forces:R:3 energy=-2.2731234012910724 pbc="F F F"
Ga       0.00000000       0.00000000       0.00000000       0.00000000       0.00000000       0.83072114
Ga       0.00000000       0.00000000       3.00181818       0.00000000       0.00000000      -0.83072114
2
Properties=species:S:1:pos:R:3:forces:R:3 energy=-2.2206659316315256 pbc="F F F"
Ga       0.00000000       0.00000000       0.00000000       0.00000000       0.00000000       0.95158768
Ga       0.00000000       0.00000000       3.06060606       0.00000000       0.00000000      -0.95158768
2
Properties=species:S:1:pos:R:3:forces:R:3 energy=-2.161550611341601 pbc="F F F"
Ga       0.00000000       0.00000000       0.00000000       0.00000000       0.00000000       1.05656302
Ga       0.00000000       0.00000000       3.11939394       0.00000000       0.00000000      -1.05656302
2
Properties=species:S:1:pos:R:3:forces:R:3 energy=-2.096819722705457 pbc="F F F"
Ga       0.00000000       0.00000000       0.00000000       0.00000000       0.00000000       1.14217985
Ga       0.00000000       0.00000000       3.17818182       0.00000000       0.00000000      -1.14217985
2
Properties=species:S:1:pos:R:3:forces:R:3 energy=-2.0276728931453034 pbc="F F F"
Ga       0.00000000       0.00000000       0.00000000       0.00000000       0.00000000       1.20667422
Ga       0.00000000       0.00000000       3.23696970       0.00000000       0.00000000      -1.20667422
2
Properties=species:S:1:pos:R:3:forces:R:3 energy=-1.9553603991058905 pbc="F F F"
Ga       0.00000000       0.00000000       0.00000000       0.00000000       0.00000000       1.25003016
Ga       0.00000000       0.00000000       3.29575758       0.00000000       0.00000000      -1.25003016
2
Properties=species:S:1:pos:R:3:forces:R:3 energy=-1.8810869538026258 pbc="F F F"
Ga       0.00000000       0.00000000       0.00000000       0.00000000       0.00000000       1.27367699
Ga       0.00000000       0.00000000       3.35454545       0.00000000       0.00000000      -1.27367699
2
Properties=species:S:1:pos:R:3:forces:R:3 energy=-1.8059429252851897 pbc="F F F"
Ga       0.00000000       0.00000000       0.00000000       0.00000000       0.00000000       1.28014839
Ga       0.00000000       0.00000000       3.41333333       0.00000000       0.00000000      -1.28014839
2
Properties=species:S:1:pos:R:3:forces:R:3 energy=-1.7308479571479263 pbc="F F F"
Ga       0.00000000       0.00000000       0.00000000       0.00000000       0.00000000       1.27254617
Ga       0.00000000       0.00000000       3.47212121       0.00000000       0.00000000      -1.27254617
2
Properties=species:S:1:pos:R:3:forces:R:3 energy=-1.6565375335907535 pbc="F F F"
Ga       0.00000000       0.00000000       0.00000000       0.00000000       0.00000000       1.25395346
Ga       0.00000000       0.00000000       3.53090909       0.00000000       0.00000000      -1.25395346
2
Properties=species:S:1:pos:R:3:forces:R:3 energy=-1.5835777683951142 pbc="F F F"
Ga       0.00000000       0.00000000       0.00000000       0.00000000       0.00000000       1.22694945
Ga       0.00000000       0.00000000       3.58969697       0.00000000       0.00000000      -1.22694945
2
Properties=species:S:1:pos:R:3:forces:R:3 energy=-1.5124060082865989 pbc="F F F"
Ga       0.00000000       0.00000000       0.00000000       0.00000000       0.00000000       1.19337142
Ga       0.00000000       0.00000000       3.64848485       0.00000000       0.00000000      -1.19337142
2
Properties=species:S:1:pos:R:3:forces:R:3 energy=-1.4433738031402634 pbc="F F F"
Ga       0.00000000       0.00000000       0.00000000       0.00000000       0.00000000       1.15431631
Ga       0.00000000       0.00000000       3.70727273       0.00000000       0.00000000      -1.15431631
2
Properties=species:S:1:pos:R:3:forces:R:3 energy=-1.376783288492682 pbc="F F F"
Ga       0.00000000       0.00000000       0.00000000       0.00000000       0.00000000       1.11029804
Ga       0.00000000       0.00000000       3.76606061       0.00000000       0.00000000      -1.11029804
2
Properties=species:S:1:pos:R:3:forces:R:3 energy=-1.3129244457005877 pbc="F F F"
Ga       0.00000000       0.00000000       0.00000000       0.00000000       0.00000000       1.06145120
Ga       0.00000000       0.00000000       3.82484848       0.00000000       0.00000000      -1.06145120
2
Properties=species:S:1:pos:R:3:forces:R:3 energy=-1.252078165704438 pbc="F F F"
Ga       0.00000000       0.00000000       0.00000000       0.00000000       0.00000000       1.00772643
Ga       0.00000000       0.00000000       3.88363636       0.00000000       0.00000000      -1.00772643
2
Properties=species:S:1:pos:R:3:forces:R:3 energy=-1.1945368143827901 pbc="F F F"
Ga       0.00000000       0.00000000       0.00000000       0.00000000       0.00000000       0.94904608
Ga       0.00000000       0.00000000       3.94242424       0.00000000       0.00000000      -0.94904608
2
Properties=species:S:1:pos:R:3:forces:R:3 energy=-1.1405904707989796 pbc="F F F"
Ga       0.00000000       0.00000000       0.00000000       0.00000000       0.00000000       0.88545406
Ga       0.00000000       0.00000000       4.00121212       0.00000000       0.00000000      -0.88545406
2
Properties=species:S:1:pos:R:3:forces:R:3 energy=-1.0905197251265442 pbc="F F F"
Ga       0.00000000       0.00000000       0.00000000       0.00000000       0.00000000       0.81725460
Ga       0.00000000       0.00000000       4.06000000       0.00000000       0.00000000      -0.81725460
2
Properties=species:S:1:pos:R:3:forces:R:3 energy=-1.0445777065569004 pbc="F F F"
Ga       0.00000000       0.00000000       0.00000000       0.00000000       0.00000000       0.74515623
Ga       0.00000000       0.00000000       4.11878788       0.00000000       0.00000000      -0.74515623
2
Properties=species:S:1:pos:R:3:forces:R:3 energy=-1.00296055424158 pbc="F F F"
Ga       0.00000000       0.00000000       0.00000000       0.00000000       0.00000000       0.67034459
Ga       0.00000000       0.00000000       4.17757576       0.00000000       0.00000000      -0.67034459
2
Properties=species:S:1:pos:R:3:forces:R:3 energy=-0.9657811342277287 pbc="F F F"
Ga       0.00000000       0.00000000       0.00000000       0.00000000       0.00000000       0.59450281
Ga       0.00000000       0.00000000       4.23636364       0.00000000       0.00000000      -0.59450281
2
Properties=species:S:1:pos:R:3:forces:R:3 energy=-0.9330408712197293 pbc="F F F"
Ga       0.00000000       0.00000000       0.00000000       0.00000000       0.00000000       0.51969206
Ga       0.00000000       0.00000000       4.29515152       0.00000000       0.00000000      -0.51969206
2
Properties=species:S:1:pos:R:3:forces:R:3 energy=-0.9046140636381356 pbc="F F F"
Ga       0.00000000       0.00000000       0.00000000       0.00000000       0.00000000       0.44815856
Ga       0.00000000       0.00000000       4.35393939       0.00000000       0.00000000      -0.44815856
2
Properties=species:S:1:pos:R:3:forces:R:3 energy=-0.8802417705157548 pbc="F F F"
Ga       0.00000000       0.00000000       0.00000000       0.00000000       0.00000000       0.38207808
Ga       0.00000000       0.00000000       4.41272727       0.00000000       0.00000000      -0.38207808
2
Properties=species:S:1:pos:R:3:forces:R:3 energy=-0.8595460696790383 pbc="F F F"
Ga       0.00000000       0.00000000       0.00000000       0.00000000       0.00000000       0.32336506
Ga       0.00000000       0.00000000       4.47151515       0.00000000       0.00000000      -0.32336506
2
Properties=species:S:1:pos:R:3:forces:R:3 energy=-0.8420479854908943 pbc="F F F"
Ga       0.00000000       0.00000000       0.00000000       0.00000000       0.00000000       0.27349547
Ga       0.00000000       0.00000000       4.53030303       0.00000000       0.00000000      -0.27349547
2
Properties=species:S:1:pos:R:3:forces:R:3 energy=-0.827198171403506 pbc="F F F"
Ga       0.00000000       0.00000000       0.00000000       0.00000000       0.00000000       0.23337933
Ga       0.00000000       0.00000000       4.58909091       0.00000000       0.00000000      -0.23337933
2
Properties=species:S:1:pos:R:3:forces:R:3 energy=-0.8144122422574191 pbc="F F F"
Ga       0.00000000       0.00000000       0.00000000       0.00000000       0.00000000       0.20325491
Ga       0.00000000       0.00000000       4.64787879       0.00000000       0.00000000      -0.20325491
2
Properties=species:S:1:pos:R:3:forces:R:3 energy=-0.8031138836948494 pbc="F F F"
Ga       0.00000000       0.00000000       0.00000000       0.00000000       0.00000000       0.18261293
Ga       0.00000000       0.00000000       4.70666667       0.00000000       0.00000000      -0.18261293
2
Properties=species:S:1:pos:R:3:forces:R:3 energy=-0.7927795307166454 pbc="F F F"
Ga       0.00000000       0.00000000       0.00000000       0.00000000       0.00000000       0.17020747
Ga       0.00000000       0.00000000       4.76545455       0.00000000       0.00000000      -0.17020747
2
Properties=species:S:1:pos:R:3:forces:R:3 energy=-0.7829760140591209 pbc="F F F"
Ga       0.00000000       0.00000000       0.00000000       0.00000000       0.00000000       0.16419271
Ga       0.00000000       0.00000000       4.82424242       0.00000000       0.00000000      -0.16419271
2
Properties=species:S:1:pos:R:3:forces:R:3 energy=-0.7733921500718098 pbc="F F F"
Ga       0.00000000       0.00000000       0.00000000       0.00000000       0.00000000       0.16240177
Ga       0.00000000       0.00000000       4.88303030       0.00000000       0.00000000      -0.16240177
2
Properties=species:S:1:pos:R:3:forces:R:3 energy=-0.763841596404706 pbc="F F F"
Ga       0.00000000       0.00000000       0.00000000       0.00000000       0.00000000       0.16267037
Ga       0.00000000       0.00000000       4.94181818       0.00000000       0.00000000      -0.16267037
2
Properties=species:S:1:pos:R:3:forces:R:3 energy=-0.7542618508166143 pbc="F F F"
Ga       0.00000000       0.00000000       0.00000000       0.00000000       0.00000000       0.16312224
Ga       0.00000000       0.00000000       5.00060606       0.00000000       0.00000000      -0.16312224
2
Properties=species:S:1:pos:R:3:forces:R:3 energy=-0.7446866373855748 pbc="F F F"
Ga       0.00000000       0.00000000       0.00000000       0.00000000       0.00000000       0.16232736
Ga       0.00000000       0.00000000       5.05939394       0.00000000       0.00000000      -0.16232736
2
Properties=species:S:1:pos:R:3:forces:R:3 energy=-0.7352190305657361 pbc="F F F"
Ga       0.00000000       0.00000000       0.00000000       0.00000000       0.00000000       0.15934741
Ga       0.00000000       0.00000000       5.11818182       0.00000000       0.00000000      -0.15934741
2
Properties=species:S:1:pos:R:3:forces:R:3 energy=-0.7260044996327181 pbc="F F F"
Ga       0.00000000       0.00000000       0.00000000       0.00000000       0.00000000       0.15369377
Ga       0.00000000       0.00000000       5.17696970       0.00000000       0.00000000      -0.15369377
2
Properties=species:S:1:pos:R:3:forces:R:3 energy=-0.7172037875703036 pbc="F F F"
Ga       0.00000000       0.00000000       0.00000000       0.00000000       0.00000000       0.14527424
Ga       0.00000000       0.00000000       5.23575758       0.00000000       0.00000000      -0.14527424
2
Properties=species:S:1:pos:R:3:forces:R:3 energy=-0.7089744399662027 pbc="F F F"
Ga       0.00000000       0.00000000       0.00000000       0.00000000       0.00000000       0.13431236
Ga       0.00000000       0.00000000       5.29454545       0.00000000       0.00000000      -0.13431236
2
Properties=species:S:1:pos:R:3:forces:R:3 energy=-0.7014518824132353 pbc="F F F"
Ga       0.00000000       0.00000000       0.00000000       0.00000000       0.00000000       0.12129965
Ga       0.00000000       0.00000000       5.35333333       0.00000000       0.00000000      -0.12129965
2
Properties=species:S:1:pos:R:3:forces:R:3 energy=-0.6947388609837397 pbc="F F F"
Ga       0.00000000       0.00000000       0.00000000       0.00000000       0.00000000       0.10690246
Ga       0.00000000       0.00000000       5.41212121       0.00000000       0.00000000      -0.10690246
2
Properties=species:S:1:pos:R:3:forces:R:3 energy=-0.688895059518045 pbc="F F F"
Ga       0.00000000       0.00000000       0.00000000       0.00000000       0.00000000       0.09187149
Ga       0.00000000       0.00000000       5.47090909       0.00000000       0.00000000      -0.09187149
2
Properties=species:S:1:pos:R:3:forces:R:3 energy=-0.6839352829747285 pbc="F F F"
Ga       0.00000000       0.00000000       0.00000000       0.00000000       0.00000000       0.07692435
Ga       0.00000000       0.00000000       5.52969697       0.00000000       0.00000000      -0.07692435
2
Properties=species:S:1:pos:R:3:forces:R:3 energy=-0.679836610571965 pbc="F F F"
Ga       0.00000000       0.00000000       0.00000000       0.00000000       0.00000000       0.06267888
Ga       0.00000000       0.00000000       5.58848485       0.00000000       0.00000000      -0.06267888
2
Properties=species:S:1:pos:R:3:forces:R:3 energy=-0.6765426267173703 pbc="F F F"
Ga       0.00000000       0.00000000       0.00000000       0.00000000       0.00000000       0.04960644
Ga       0.00000000       0.00000000       5.64727273       0.00000000       0.00000000      -0.04960644
2
Properties=species:S:1:pos:R:3:forces:R:3 energy=-0.6739757457062263 pbc="F F F"
Ga       0.00000000       0.00000000       0.00000000       0.00000000       0.00000000       0.03801284
Ga       0.00000000       0.00000000       5.70606061       0.00000000       0.00000000      -0.03801284
2
Properties=species:S:1:pos:R:3:forces:R:3 energy=-0.6720385148961305 pbc="F F F"
Ga       0.00000000       0.00000000       0.00000000       0.00000000       0.00000000       0.02810133
Ga       0.00000000       0.00000000       5.76484848       0.00000000       0.00000000      -0.02810133
2
Properties=species:S:1:pos:R:3:forces:R:3 energy=-0.6706346048374445 pbc="F F F"
Ga       0.00000000       0.00000000       0.00000000       0.00000000       0.00000000       0.02001942
Ga       0.00000000       0.00000000       5.82363636       0.00000000       0.00000000      -0.02001942
2
Properties=species:S:1:pos:R:3:forces:R:3 energy=-0.6696486114262494 pbc="F F F"
Ga       0.00000000       0.00000000       0.00000000       0.00000000       0.00000000       0.01389796
Ga       0.00000000       0.00000000       5.88242424       0.00000000       0.00000000      -0.01389796
2
Properties=species:S:1:pos:R:3:forces:R:3 energy=-0.6689591225768168 pbc="F F F"
Ga       0.00000000       0.00000000       0.00000000       0.00000000       0.00000000       0.00989797
Ga       0.00000000       0.00000000       5.94121212       0.00000000       0.00000000      -0.00989797
2
Properties=species:S:1:pos:R:3:forces:R:3 energy=-0.668439160796699 pbc="F F F"
Ga       0.00000000       0.00000000       0.00000000       0.00000000       0.00000000       0.00820687
Ga       0.00000000       0.00000000       6.00000000       0.00000000       0.00000000      -0.00820687
