2
Properties=species:S:1:pos:R:3:forces:R:3 energy=4838.960191311726 pbc="F F F"
Ge       0.00000000       0.00000000       0.00000000       0.00000000       0.00000000  -76634.45312500
Ge       0.00000000       0.00000000       0.18000000       0.00000000       0.00000000   76634.45312500
2
Properties=species:S:1:pos:R:3:forces:R:3 energy=2069.101792874226 pbc="F F F"
Ge       0.00000000       0.00000000       0.00000000       0.00000000       0.00000000  -27470.52539062
Ge       0.00000000       0.00000000       0.23878788       0.00000000       0.00000000   27470.52539062
2
Properties=species:S:1:pos:R:3:forces:R:3 energy=998.3910995148507 pbc="F F F"
Ge       0.00000000       0.00000000       0.00000000       0.00000000       0.00000000  -11595.51269531
Ge       0.00000000       0.00000000       0.29757576       0.00000000       0.00000000   11595.51269531
2
Properties=species:S:1:pos:R:3:forces:R:3 energy=524.0525375062998 pbc="F F F"
Ge       0.00000000       0.00000000       0.00000000       0.00000000       0.00000000   -5425.52636719
Ge       0.00000000       0.00000000       0.35636364       0.00000000       0.00000000    5425.52636719
2
Properties=species:S:1:pos:R:3:forces:R:3 energy=294.8809676915845 pbc="F F F"
Ge       0.00000000       0.00000000       0.00000000       0.00000000       0.00000000   -2716.76538086
Ge       0.00000000       0.00000000       0.41515152       0.00000000       0.00000000    2716.76538086
2
Properties=species:S:1:pos:R:3:forces:R:3 energy=177.56582793691578 pbc="F F F"
Ge       0.00000000       0.00000000       0.00000000       0.00000000       0.00000000   -1425.06262207
Ge       0.00000000       0.00000000       0.47393939       0.00000000       0.00000000    1425.06262207
2
Properties=species:S:1:pos:R:3:forces:R:3 energy=115.0703750845668 pbc="F F F"
Ge       0.00000000       0.00000000       0.00000000       0.00000000       0.00000000    -772.18994141
Ge       0.00000000       0.00000000       0.53272727       0.00000000       0.00000000     772.18994141
2
Properties=species:S:1:pos:R:3:forces:R:3 energy=80.79786079199025 pbc="F F F"
Ge       0.00000000       0.00000000       0.00000000       0.00000000       0.00000000    -429.80630493
Ge       0.00000000       0.00000000       0.59151515       0.00000000       0.00000000     429.80630493
2
Properties=species:S:1:pos:R:3:forces:R:3 energy=61.39598252375567 pbc="F F F"
Ge       0.00000000       0.00000000       0.00000000       0.00000000       0.00000000    -250.05969238
Ge       0.00000000       0.00000000       0.65030303       0.00000000       0.00000000     250.05969238
2
Properties=species:S:1:pos:R:3:forces:R:3 energy=49.58951750787842 pbc="F F F"
Ge       0.00000000       0.00000000       0.00000000       0.00000000       0.00000000    -163.57545471
Ge       0.00000000       0.00000000       0.70909091       0.00000000       0.00000000     163.57545471
2
Properties=species:S:1:pos:R:3:forces:R:3 energy=41.19297993302514 pbc="F F F"
Ge       0.00000000       0.00000000       0.00000000       0.00000000       0.00000000    -124.61214447
Ge       0.00000000       0.00000000       0.76787879       0.00000000       0.00000000     124.61214447
2
Properties=species:S:1:pos:R:3:forces:R:3 energy=35.539106793532554 pbc="F F F"
Ge       0.00000000       0.00000000       0.00000000       0.00000000       0.00000000     -58.92438507
Ge       0.00000000       0.00000000       0.82666667       0.00000000       0.00000000      58.92438507
2
Properties=species:S:1:pos:R:3:forces:R:3 energy=32.68209352513161 pbc="F F F"
Ge       0.00000000       0.00000000       0.00000000       0.00000000       0.00000000     -65.13565063
Ge       0.00000000       0.00000000       0.88545455       0.00000000       0.00000000      65.13565063
2
Properties=species:S:1:pos:R:3:forces:R:3 energy=27.44520906255268 pbc="F F F"
Ge       0.00000000       0.00000000       0.00000000       0.00000000       0.00000000    -105.83292389
Ge       0.00000000       0.00000000       0.94424242       0.00000000       0.00000000     105.83292389
2
Properties=species:S:1:pos:R:3:forces:R:3 energy=20.83099595537628 pbc="F F F"
Ge       0.00000000       0.00000000       0.00000000       0.00000000       0.00000000    -114.81977081
Ge       0.00000000       0.00000000       1.00303030       0.00000000       0.00000000     114.81977081
2
Properties=species:S:1:pos:R:3:forces:R:3 energy=14.410964585068086 pbc="F F F"
Ge       0.00000000       0.00000000       0.00000000       0.00000000       0.00000000    -100.34470367
Ge       0.00000000       0.00000000       1.06181818       0.00000000       0.00000000     100.34470367
2
Properties=species:S:1:pos:R:3:forces:R:3 energy=9.304336711804895 pbc="F F F"
Ge       0.00000000       0.00000000       0.00000000       0.00000000       0.00000000     -72.16986084
Ge       0.00000000       0.00000000       1.12060606       0.00000000       0.00000000      72.16986084
2
Properties=species:S:1:pos:R:3:forces:R:3 energy=5.910993799872059 pbc="F F F"
Ge       0.00000000       0.00000000       0.00000000       0.00000000       0.00000000     -44.69525528
Ge       0.00000000       0.00000000       1.17939394       0.00000000       0.00000000      44.69525528
2
Properties=species:S:1:pos:R:3:forces:R:3 energy=3.8074079946309736 pbc="F F F"
Ge       0.00000000       0.00000000       0.00000000       0.00000000       0.00000000     -28.89785004
Ge       0.00000000       0.00000000       1.23818182       0.00000000       0.00000000      28.89785004
2
Properties=species:S:1:pos:R:3:forces:R:3 energy=2.3460534128615413 pbc="F F F"
Ge       0.00000000       0.00000000       0.00000000       0.00000000       0.00000000     -21.65402985
Ge       0.00000000       0.00000000       1.29696970       0.00000000       0.00000000      21.65402985
2
Properties=species:S:1:pos:R:3:forces:R:3 energy=1.2056900167601192 pbc="F F F"
Ge       0.00000000       0.00000000       0.00000000       0.00000000       0.00000000     -17.38516998
Ge       0.00000000       0.00000000       1.35575758       0.00000000       0.00000000      17.38516998
2
Properties=species:S:1:pos:R:3:forces:R:3 energy=0.28423393991514034 pbc="F F F"
Ge       0.00000000       0.00000000       0.00000000       0.00000000       0.00000000     -14.08166504
Ge       0.00000000       0.00000000       1.41454545       0.00000000       0.00000000      14.08166504
2
Properties=species:S:1:pos:R:3:forces:R:3 energy=-0.4650907809282735 pbc="F F F"
Ge       0.00000000       0.00000000       0.00000000       0.00000000       0.00000000     -11.55205441
Ge       0.00000000       0.00000000       1.47333333       0.00000000       0.00000000      11.55205441
2
Properties=species:S:1:pos:R:3:forces:R:3 energy=-1.0902774489473162 pbc="F F F"
Ge       0.00000000       0.00000000       0.00000000       0.00000000       0.00000000      -9.84010696
Ge       0.00000000       0.00000000       1.53212121       0.00000000       0.00000000       9.84010696
2
Properties=species:S:1:pos:R:3:forces:R:3 energy=-1.633257066430145 pbc="F F F"
Ge       0.00000000       0.00000000       0.00000000       0.00000000       0.00000000      -8.69789600
Ge       0.00000000       0.00000000       1.59090909       0.00000000       0.00000000       8.69789600
2
Properties=species:S:1:pos:R:3:forces:R:3 energy=-2.1175376332481823 pbc="F F F"
Ge       0.00000000       0.00000000       0.00000000       0.00000000       0.00000000      -7.79533768
Ge       0.00000000       0.00000000       1.64969697       0.00000000       0.00000000       7.79533768
2
Properties=species:S:1:pos:R:3:forces:R:3 energy=-2.5503820035416744 pbc="F F F"
Ge       0.00000000       0.00000000       0.00000000       0.00000000       0.00000000      -6.92767715
Ge       0.00000000       0.00000000       1.70848485       0.00000000       0.00000000       6.92767715
2
Properties=species:S:1:pos:R:3:forces:R:3 energy=-2.931553235256341 pbc="F F F"
Ge       0.00000000       0.00000000       0.00000000       0.00000000       0.00000000      -6.03609991
Ge       0.00000000       0.00000000       1.76727273       0.00000000       0.00000000       6.03609991
2
Properties=species:S:1:pos:R:3:forces:R:3 energy=-3.2597975817831877 pbc="F F F"
Ge       0.00000000       0.00000000       0.00000000       0.00000000       0.00000000      -5.12999153
Ge       0.00000000       0.00000000       1.82606061       0.00000000       0.00000000       5.12999153
2
Properties=species:S:1:pos:R:3:forces:R:3 energy=-3.5347342934830466 pbc="F F F"
Ge       0.00000000       0.00000000       0.00000000       0.00000000       0.00000000      -4.22483492
Ge       0.00000000       0.00000000       1.88484848       0.00000000       0.00000000       4.22483492
2
Properties=species:S:1:pos:R:3:forces:R:3 energy=-3.7569172057077185 pbc="F F F"
Ge       0.00000000       0.00000000       0.00000000       0.00000000       0.00000000      -3.33977842
Ge       0.00000000       0.00000000       1.94363636       0.00000000       0.00000000       3.33977842
2
Properties=species:S:1:pos:R:3:forces:R:3 energy=-3.9285133002508488 pbc="F F F"
Ge       0.00000000       0.00000000       0.00000000       0.00000000       0.00000000      -2.51128268
Ge       0.00000000       0.00000000       2.00242424       0.00000000       0.00000000       2.51128268
2
Properties=species:S:1:pos:R:3:forces:R:3 energy=-4.054154857699149 pbc="F F F"
Ge       0.00000000       0.00000000       0.00000000       0.00000000       0.00000000      -1.78282893
Ge       0.00000000       0.00000000       2.06121212       0.00000000       0.00000000       1.78282893
2
Properties=species:S:1:pos:R:3:forces:R:3 energy=-4.140629503776094 pbc="F F F"
Ge       0.00000000       0.00000000       0.00000000       0.00000000       0.00000000      -1.18086350
Ge       0.00000000       0.00000000       2.12000000       0.00000000       0.00000000       1.18086350
2
Properties=species:S:1:pos:R:3:forces:R:3 energy=-4.195440761506376 pbc="F F F"
Ge       0.00000000       0.00000000       0.00000000       0.00000000       0.00000000      -0.70288694
Ge       0.00000000       0.00000000       2.17878788       0.00000000       0.00000000       0.70288694
2
Properties=species:S:1:pos:R:3:forces:R:3 energy=-4.225183775128568 pbc="F F F"
Ge       0.00000000       0.00000000       0.00000000       0.00000000       0.00000000      -0.32195777
Ge       0.00000000       0.00000000       2.23757576       0.00000000       0.00000000       0.32195777
2
Properties=species:S:1:pos:R:3:forces:R:3 energy=-4.234424567711213 pbc="F F F"
Ge       0.00000000       0.00000000       0.00000000       0.00000000       0.00000000       0.00127874
Ge       0.00000000       0.00000000       2.29636364       0.00000000       0.00000000      -0.00127874
2
Properties=species:S:1:pos:R:3:forces:R:3 energy=-4.2254265393646335 pbc="F F F"
Ge       0.00000000       0.00000000       0.00000000       0.00000000       0.00000000       0.30385008
Ge       0.00000000       0.00000000       2.35515152       0.00000000       0.00000000      -0.30385008
2
Properties=species:S:1:pos:R:3:forces:R:3 energy=-4.198653164479451 pbc="F F F"
Ge       0.00000000       0.00000000       0.00000000       0.00000000       0.00000000       0.60809875
Ge       0.00000000       0.00000000       2.41393939       0.00000000       0.00000000      -0.60809875
2
Properties=species:S:1:pos:R:3:forces:R:3 energy=-4.15382318317652 pbc="F F F"
Ge       0.00000000       0.00000000       0.00000000       0.00000000       0.00000000       0.91711432
Ge       0.00000000       0.00000000       2.47272727       0.00000000       0.00000000      -0.91711432
2
Properties=species:S:1:pos:R:3:forces:R:3 energy=-4.090970664002745 pbc="F F F"
Ge       0.00000000       0.00000000       0.00000000       0.00000000       0.00000000       1.21833491
Ge       0.00000000       0.00000000       2.53151515       0.00000000       0.00000000      -1.21833491
2
Properties=species:S:1:pos:R:3:forces:R:3 energy=-4.01112681806323 pbc="F F F"
Ge       0.00000000       0.00000000       0.00000000       0.00000000       0.00000000       1.49156296
Ge       0.00000000       0.00000000       2.59030303       0.00000000       0.00000000      -1.49156296
2
Properties=species:S:1:pos:R:3:forces:R:3 energy=-3.916548178977511 pbc="F F F"
Ge       0.00000000       0.00000000       0.00000000       0.00000000       0.00000000       1.71654665
Ge       0.00000000       0.00000000       2.64909091       0.00000000       0.00000000      -1.71654665
2
Properties=species:S:1:pos:R:3:forces:R:3 energy=-3.810551375861598 pbc="F F F"
Ge       0.00000000       0.00000000       0.00000000       0.00000000       0.00000000       1.87810183
Ge       0.00000000       0.00000000       2.70787879       0.00000000       0.00000000      -1.87810183
2
Properties=species:S:1:pos:R:3:forces:R:3 energy=-3.6971210051621797 pbc="F F F"
Ge       0.00000000       0.00000000       0.00000000       0.00000000       0.00000000       1.96893620
Ge       0.00000000       0.00000000       2.76666667       0.00000000       0.00000000      -1.96893620
2
Properties=species:S:1:pos:R:3:forces:R:3 energy=-3.5803984840990273 pbc="F F F"
Ge       0.00000000       0.00000000       0.00000000       0.00000000       0.00000000       1.99133468
Ge       0.00000000       0.00000000       2.82545455       0.00000000       0.00000000      -1.99133468
2
Properties=species:S:1:pos:R:3:forces:R:3 energy=-3.4640964798095677 pbc="F F F"
Ge       0.00000000       0.00000000       0.00000000       0.00000000       0.00000000       1.95734859
Ge       0.00000000       0.00000000       2.88424242       0.00000000       0.00000000      -1.95734859
2
Properties=species:S:1:pos:R:3:forces:R:3 energy=-3.3510149984986795 pbc="F F F"
Ge       0.00000000       0.00000000       0.00000000       0.00000000       0.00000000       1.88490784
Ge       0.00000000       0.00000000       2.94303030       0.00000000       0.00000000      -1.88490784
2
Properties=species:S:1:pos:R:3:forces:R:3 energy=-3.242900147894482 pbc="F F F"
Ge       0.00000000       0.00000000       0.00000000       0.00000000       0.00000000       1.79071701
Ge       0.00000000       0.00000000       3.00181818       0.00000000       0.00000000      -1.79071701
2
Properties=species:S:1:pos:R:3:forces:R:3 energy=-3.1406608703182686 pbc="F F F"
Ge       0.00000000       0.00000000       0.00000000       0.00000000       0.00000000       1.68662560
Ge       0.00000000       0.00000000       3.06060606       0.00000000       0.00000000      -1.68662560
2
Properties=species:S:1:pos:R:3:forces:R:3 energy=-3.04463527316974 pbc="F F F"
Ge       0.00000000       0.00000000       0.00000000       0.00000000       0.00000000       1.58032346
Ge       0.00000000       0.00000000       3.11939394       0.00000000       0.00000000      -1.58032346
2
Properties=species:S:1:pos:R:3:forces:R:3 energy=-2.9548021172363113 pbc="F F F"
Ge       0.00000000       0.00000000       0.00000000       0.00000000       0.00000000       1.47660029
Ge       0.00000000       0.00000000       3.17818182       0.00000000       0.00000000      -1.47660029
2
Properties=species:S:1:pos:R:3:forces:R:3 energy=-2.8709106115550003 pbc="F F F"
Ge       0.00000000       0.00000000       0.00000000       0.00000000       0.00000000       1.37863028
Ge       0.00000000       0.00000000       3.23696970       0.00000000       0.00000000      -1.37863028
2
Properties=species:S:1:pos:R:3:forces:R:3 energy=-2.7925408712549724 pbc="F F F"
Ge       0.00000000       0.00000000       0.00000000       0.00000000       0.00000000       1.28921425
Ge       0.00000000       0.00000000       3.29575758       0.00000000       0.00000000      -1.28921425
2
Properties=species:S:1:pos:R:3:forces:R:3 energy=-2.71910568120256 pbc="F F F"
Ge       0.00000000       0.00000000       0.00000000       0.00000000       0.00000000       1.21123266
Ge       0.00000000       0.00000000       3.35454545       0.00000000       0.00000000      -1.21123266
2
Properties=species:S:1:pos:R:3:forces:R:3 energy=-2.6498568524761765 pbc="F F F"
Ge       0.00000000       0.00000000       0.00000000       0.00000000       0.00000000       1.14710701
Ge       0.00000000       0.00000000       3.41333333       0.00000000       0.00000000      -1.14710701
2
Properties=species:S:1:pos:R:3:forces:R:3 energy=-2.583941275435584 pbc="F F F"
Ge       0.00000000       0.00000000       0.00000000       0.00000000       0.00000000       1.09784412
Ge       0.00000000       0.00000000       3.47212121       0.00000000       0.00000000      -1.09784412
2
Properties=species:S:1:pos:R:3:forces:R:3 energy=-2.5205055042990274 pbc="F F F"
Ge       0.00000000       0.00000000       0.00000000       0.00000000       0.00000000       1.06237876
Ge       0.00000000       0.00000000       3.53090909       0.00000000       0.00000000      -1.06237876
2
Properties=species:S:1:pos:R:3:forces:R:3 energy=-2.4588205115928634 pbc="F F F"
Ge       0.00000000       0.00000000       0.00000000       0.00000000       0.00000000       1.03758860
Ge       0.00000000       0.00000000       3.58969697       0.00000000       0.00000000      -1.03758860
2
Properties=species:S:1:pos:R:3:forces:R:3 energy=-2.3983873304289247 pbc="F F F"
Ge       0.00000000       0.00000000       0.00000000       0.00000000       0.00000000       1.01901805
Ge       0.00000000       0.00000000       3.64848485       0.00000000       0.00000000      -1.01901805
2
Properties=species:S:1:pos:R:3:forces:R:3 energy=-2.3389814937310613 pbc="F F F"
Ge       0.00000000       0.00000000       0.00000000       0.00000000       0.00000000       1.00189948
Ge       0.00000000       0.00000000       3.70727273       0.00000000       0.00000000      -1.00189948
2
Properties=species:S:1:pos:R:3:forces:R:3 energy=-2.280640632469288 pbc="F F F"
Ge       0.00000000       0.00000000       0.00000000       0.00000000       0.00000000       0.98213863
Ge       0.00000000       0.00000000       3.76606061       0.00000000       0.00000000      -0.98213863
2
Properties=species:S:1:pos:R:3:forces:R:3 energy=-2.2236132053298925 pbc="F F F"
Ge       0.00000000       0.00000000       0.00000000       0.00000000       0.00000000       0.95692408
Ge       0.00000000       0.00000000       3.82484848       0.00000000       0.00000000      -0.95692408
2
Properties=species:S:1:pos:R:3:forces:R:3 energy=-2.1682641514823753 pbc="F F F"
Ge       0.00000000       0.00000000       0.00000000       0.00000000       0.00000000       0.92489082
Ge       0.00000000       0.00000000       3.88363636       0.00000000       0.00000000      -0.92489082
2
Properties=species:S:1:pos:R:3:forces:R:3 energy=-2.1150046679723924 pbc="F F F"
Ge       0.00000000       0.00000000       0.00000000       0.00000000       0.00000000       0.88593251
Ge       0.00000000       0.00000000       3.94242424       0.00000000       0.00000000      -0.88593251
2
Properties=species:S:1:pos:R:3:forces:R:3 energy=-2.0642220576386974 pbc="F F F"
Ge       0.00000000       0.00000000       0.00000000       0.00000000       0.00000000       0.84081757
Ge       0.00000000       0.00000000       4.00121212       0.00000000       0.00000000      -0.84081757
2
Properties=species:S:1:pos:R:3:forces:R:3 energy=-2.016241864908578 pbc="F F F"
Ge       0.00000000       0.00000000       0.00000000       0.00000000       0.00000000       0.79076880
Ge       0.00000000       0.00000000       4.06000000       0.00000000       0.00000000      -0.79076880
2
Properties=species:S:1:pos:R:3:forces:R:3 energy=-1.9713161489379678 pbc="F F F"
Ge       0.00000000       0.00000000       0.00000000       0.00000000       0.00000000       0.73716164
Ge       0.00000000       0.00000000       4.11878788       0.00000000       0.00000000      -0.73716164
2
Properties=species:S:1:pos:R:3:forces:R:3 energy=-1.9296126534050775 pbc="F F F"
Ge       0.00000000       0.00000000       0.00000000       0.00000000       0.00000000       0.68133116
Ge       0.00000000       0.00000000       4.17757576       0.00000000       0.00000000      -0.68133116
2
Properties=species:S:1:pos:R:3:forces:R:3 energy=-1.8912265702161968 pbc="F F F"
Ge       0.00000000       0.00000000       0.00000000       0.00000000       0.00000000       0.62451810
Ge       0.00000000       0.00000000       4.23636364       0.00000000       0.00000000      -0.62451810
2
Properties=species:S:1:pos:R:3:forces:R:3 energy=-1.8561807640850307 pbc="F F F"
Ge       0.00000000       0.00000000       0.00000000       0.00000000       0.00000000       0.56786275
Ge       0.00000000       0.00000000       4.29515152       0.00000000       0.00000000      -0.56786275
2
Properties=species:S:1:pos:R:3:forces:R:3 energy=-1.8244360023568478 pbc="F F F"
Ge       0.00000000       0.00000000       0.00000000       0.00000000       0.00000000       0.51243854
Ge       0.00000000       0.00000000       4.35393939       0.00000000       0.00000000      -0.51243854
2
Properties=species:S:1:pos:R:3:forces:R:3 energy=-1.7958874175755752 pbc="F F F"
Ge       0.00000000       0.00000000       0.00000000       0.00000000       0.00000000       0.45925006
Ge       0.00000000       0.00000000       4.41272727       0.00000000       0.00000000      -0.45925006
2
Properties=species:S:1:pos:R:3:forces:R:3 energy=-1.7703768308060936 pbc="F F F"
Ge       0.00000000       0.00000000       0.00000000       0.00000000       0.00000000       0.40923727
Ge       0.00000000       0.00000000       4.47151515       0.00000000       0.00000000      -0.40923727
2
Properties=species:S:1:pos:R:3:forces:R:3 energy=-1.7476915437022298 pbc="F F F"
Ge       0.00000000       0.00000000       0.00000000       0.00000000       0.00000000       0.36325443
Ge       0.00000000       0.00000000       4.53030303       0.00000000       0.00000000      -0.36325443
2
Properties=species:S:1:pos:R:3:forces:R:3 energy=-1.727574157266017 pbc="F F F"
Ge       0.00000000       0.00000000       0.00000000       0.00000000       0.00000000       0.32200733
Ge       0.00000000       0.00000000       4.58909091       0.00000000       0.00000000      -0.32200733
2
Properties=species:S:1:pos:R:3:forces:R:3 energy=-1.709729369945022 pbc="F F F"
Ge       0.00000000       0.00000000       0.00000000       0.00000000       0.00000000       0.28597730
Ge       0.00000000       0.00000000       4.64787879       0.00000000       0.00000000      -0.28597730
2
Properties=species:S:1:pos:R:3:forces:R:3 energy=-1.693844021048058 pbc="F F F"
Ge       0.00000000       0.00000000       0.00000000       0.00000000       0.00000000       0.25533184
Ge       0.00000000       0.00000000       4.70666667       0.00000000       0.00000000      -0.25533184
2
Properties=species:S:1:pos:R:3:forces:R:3 energy=-1.6796066553238724 pbc="F F F"
Ge       0.00000000       0.00000000       0.00000000       0.00000000       0.00000000       0.22986838
Ge       0.00000000       0.00000000       4.76545455       0.00000000       0.00000000      -0.22986838
2
Properties=species:S:1:pos:R:3:forces:R:3 energy=-1.666726641212943 pbc="F F F"
Ge       0.00000000       0.00000000       0.00000000       0.00000000       0.00000000       0.20900553
Ge       0.00000000       0.00000000       4.82424242       0.00000000       0.00000000      -0.20900553
2
Properties=species:S:1:pos:R:3:forces:R:3 energy=-1.654960085196731 pbc="F F F"
Ge       0.00000000       0.00000000       0.00000000       0.00000000       0.00000000       0.19187632
Ge       0.00000000       0.00000000       4.88303030       0.00000000       0.00000000      -0.19187632
2
Properties=species:S:1:pos:R:3:forces:R:3 energy=-1.6441137086834399 pbc="F F F"
Ge       0.00000000       0.00000000       0.00000000       0.00000000       0.00000000       0.17746095
Ge       0.00000000       0.00000000       4.94181818       0.00000000       0.00000000      -0.17746095
2
Properties=species:S:1:pos:R:3:forces:R:3 energy=-1.6340605135261868 pbc="F F F"
Ge       0.00000000       0.00000000       0.00000000       0.00000000       0.00000000       0.16474733
Ge       0.00000000       0.00000000       5.00060606       0.00000000       0.00000000      -0.16474733
2
Properties=species:S:1:pos:R:3:forces:R:3 energy=-1.6247270915693768 pbc="F F F"
Ge       0.00000000       0.00000000       0.00000000       0.00000000       0.00000000       0.15285304
Ge       0.00000000       0.00000000       5.05939394       0.00000000       0.00000000      -0.15285304
2
Properties=species:S:1:pos:R:3:forces:R:3 energy=-1.6160860796174172 pbc="F F F"
Ge       0.00000000       0.00000000       0.00000000       0.00000000       0.00000000       0.14109768
Ge       0.00000000       0.00000000       5.11818182       0.00000000       0.00000000      -0.14109768
2
Properties=species:S:1:pos:R:3:forces:R:3 energy=-1.6081437264066007 pbc="F F F"
Ge       0.00000000       0.00000000       0.00000000       0.00000000       0.00000000       0.12905002
Ge       0.00000000       0.00000000       5.17696970       0.00000000       0.00000000      -0.12905002
2
Properties=species:S:1:pos:R:3:forces:R:3 energy=-1.6009234591461703 pbc="F F F"
Ge       0.00000000       0.00000000       0.00000000       0.00000000       0.00000000       0.11651315
Ge       0.00000000       0.00000000       5.23575758       0.00000000       0.00000000      -0.11651315
2
Properties=species:S:1:pos:R:3:forces:R:3 energy=-1.5944541562424734 pbc="F F F"
Ge       0.00000000       0.00000000       0.00000000       0.00000000       0.00000000       0.10352458
Ge       0.00000000       0.00000000       5.29454545       0.00000000       0.00000000      -0.10352458
2
Properties=species:S:1:pos:R:3:forces:R:3 energy=-1.5887558596072384 pbc="F F F"
Ge       0.00000000       0.00000000       0.00000000       0.00000000       0.00000000       0.09030416
Ge       0.00000000       0.00000000       5.35333333       0.00000000       0.00000000      -0.09030416
2
Properties=species:S:1:pos:R:3:forces:R:3 energy=-1.583833610620561 pbc="F F F"
Ge       0.00000000       0.00000000       0.00000000       0.00000000       0.00000000       0.07719841
Ge       0.00000000       0.00000000       5.41212121       0.00000000       0.00000000      -0.07719841
2
Properties=species:S:1:pos:R:3:forces:R:3 energy=-1.5796691688370783 pbc="F F F"
Ge       0.00000000       0.00000000       0.00000000       0.00000000       0.00000000       0.06460090
Ge       0.00000000       0.00000000       5.47090909       0.00000000       0.00000000      -0.06460090
2
Properties=species:S:1:pos:R:3:forces:R:3 energy=-1.576220790990413 pbc="F F F"
Ge       0.00000000       0.00000000       0.00000000       0.00000000       0.00000000       0.05288174
Ge       0.00000000       0.00000000       5.52969697       0.00000000       0.00000000      -0.05288174
2
Properties=species:S:1:pos:R:3:forces:R:3 energy=-1.5734287399630678 pbc="F F F"
Ge       0.00000000       0.00000000       0.00000000       0.00000000       0.00000000       0.04231803
Ge       0.00000000       0.00000000       5.58848485       0.00000000       0.00000000      -0.04231803
2
Properties=species:S:1:pos:R:3:forces:R:3 energy=-1.571219276505737 pbc="F F F"
Ge       0.00000000       0.00000000       0.00000000       0.00000000       0.00000000       0.03308008
Ge       0.00000000       0.00000000       5.64727273       0.00000000       0.00000000      -0.03308008
2
Properties=species:S:1:pos:R:3:forces:R:3 energy=-1.569512756757483 pbc="F F F"
Ge       0.00000000       0.00000000       0.00000000       0.00000000       0.00000000       0.02522767
Ge       0.00000000       0.00000000       5.70606061       0.00000000       0.00000000      -0.02522767
2
Properties=species:S:1:pos:R:3:forces:R:3 energy=-1.5682254520633025 pbc="F F F"
Ge       0.00000000       0.00000000       0.00000000       0.00000000       0.00000000       0.01874441
Ge       0.00000000       0.00000000       5.76484848       0.00000000       0.00000000      -0.01874441
2
Properties=species:S:1:pos:R:3:forces:R:3 energy=-1.567281870296549 pbc="F F F"
Ge       0.00000000       0.00000000       0.00000000       0.00000000       0.00000000       0.01359936
Ge       0.00000000       0.00000000       5.82363636       0.00000000       0.00000000      -0.01359936
2
Properties=species:S:1:pos:R:3:forces:R:3 energy=-1.5666019759143284 pbc="F F F"
Ge       0.00000000       0.00000000       0.00000000       0.00000000       0.00000000       0.00976943
Ge       0.00000000       0.00000000       5.88242424       0.00000000       0.00000000      -0.00976943
2
Properties=species:S:1:pos:R:3:forces:R:3 energy=-1.5661073021014436 pbc="F F F"
Ge       0.00000000       0.00000000       0.00000000       0.00000000       0.00000000       0.00726661
Ge       0.00000000       0.00000000       5.94121212       0.00000000       0.00000000      -0.00726661
2
Properties=species:S:1:pos:R:3:forces:R:3 energy=-1.5657198929339442 pbc="F F F"
Ge       0.00000000       0.00000000       0.00000000       0.00000000       0.00000000       0.00616144
Ge       0.00000000       0.00000000       6.00000000       0.00000000       0.00000000      -0.00616144
