2
Properties=species:S:1:pos:R:3:forces:R:3 energy=14973.787947075718 pbc="F F F"
Hf       0.00000000       0.00000000       0.00000000       0.00000000       0.00000000 -262289.18750000
Hf       0.00000000       0.00000000       0.18000000       0.00000000       0.00000000  262289.18750000
2
Properties=species:S:1:pos:R:3:forces:R:3 energy=5800.995954888218 pbc="F F F"
Hf       0.00000000       0.00000000       0.00000000       0.00000000       0.00000000  -86888.29687500
Hf       0.00000000       0.00000000       0.23878788       0.00000000       0.00000000   86888.29687500
2
Properties=species:S:1:pos:R:3:forces:R:3 energy=2526.3118728569675 pbc="F F F"
Hf       0.00000000       0.00000000       0.00000000       0.00000000       0.00000000  -33866.50390625
Hf       0.00000000       0.00000000       0.29757576       0.00000000       0.00000000   33866.50390625
2
Properties=species:S:1:pos:R:3:forces:R:3 energy=1189.2132400476355 pbc="F F F"
Hf       0.00000000       0.00000000       0.00000000       0.00000000       0.00000000  -14604.13378906
Hf       0.00000000       0.00000000       0.35636364       0.00000000       0.00000000   14604.13378906
2
Properties=species:S:1:pos:R:3:forces:R:3 energy=593.2837356531043 pbc="F F F"
Hf       0.00000000       0.00000000       0.00000000       0.00000000       0.00000000   -6770.89843750
Hf       0.00000000       0.00000000       0.41515152       0.00000000       0.00000000    6770.89843750
2
Properties=species:S:1:pos:R:3:forces:R:3 energy=309.5740493769752 pbc="F F F"
Hf       0.00000000       0.00000000       0.00000000       0.00000000       0.00000000   -3328.18798828
Hf       0.00000000       0.00000000       0.47393939       0.00000000       0.00000000    3328.18798828
2
Properties=species:S:1:pos:R:3:forces:R:3 energy=166.91503754565835 pbc="F F F"
Hf       0.00000000       0.00000000       0.00000000       0.00000000       0.00000000   -1719.45690918
Hf       0.00000000       0.00000000       0.53272727       0.00000000       0.00000000    1719.45690918
2
Properties=species:S:1:pos:R:3:forces:R:3 energy=91.7731613376265 pbc="F F F"
Hf       0.00000000       0.00000000       0.00000000       0.00000000       0.00000000    -926.08673096
Hf       0.00000000       0.00000000       0.59151515       0.00000000       0.00000000     926.08673096
2
Properties=species:S:1:pos:R:3:forces:R:3 energy=50.68990558881118 pbc="F F F"
Hf       0.00000000       0.00000000       0.00000000       0.00000000       0.00000000    -514.54180908
Hf       0.00000000       0.00000000       0.65030303       0.00000000       0.00000000     514.54180908
2
Properties=species:S:1:pos:R:3:forces:R:3 energy=27.662300570062346 pbc="F F F"
Hf       0.00000000       0.00000000       0.00000000       0.00000000       0.00000000    -290.56704712
Hf       0.00000000       0.00000000       0.70909091       0.00000000       0.00000000     290.56704712
2
Properties=species:S:1:pos:R:3:forces:R:3 energy=14.655071769429142 pbc="F F F"
Hf       0.00000000       0.00000000       0.00000000       0.00000000       0.00000000    -163.53698730
Hf       0.00000000       0.00000000       0.76787879       0.00000000       0.00000000     163.53698730
2
Properties=species:S:1:pos:R:3:forces:R:3 energy=7.405125731223572 pbc="F F F"
Hf       0.00000000       0.00000000       0.00000000       0.00000000       0.00000000     -89.66041565
Hf       0.00000000       0.00000000       0.82666667       0.00000000       0.00000000      89.66041565
2
Properties=species:S:1:pos:R:3:forces:R:3 energy=3.5388834365127284 pbc="F F F"
Hf       0.00000000       0.00000000       0.00000000       0.00000000       0.00000000     -45.25048065
Hf       0.00000000       0.00000000       0.88545455       0.00000000       0.00000000      45.25048065
2
Properties=species:S:1:pos:R:3:forces:R:3 energy=1.8209003458864044 pbc="F F F"
Hf       0.00000000       0.00000000       0.00000000       0.00000000       0.00000000     -14.93869686
Hf       0.00000000       0.00000000       0.94424242       0.00000000       0.00000000      14.93869686
2
Properties=species:S:1:pos:R:3:forces:R:3 energy=1.494006751672969 pbc="F F F"
Hf       0.00000000       0.00000000       0.00000000       0.00000000       0.00000000       0.42249936
Hf       0.00000000       0.00000000       1.00303030       0.00000000       0.00000000      -0.42249936
2
Properties=species:S:1:pos:R:3:forces:R:3 energy=1.4666337292087979 pbc="F F F"
Hf       0.00000000       0.00000000       0.00000000       0.00000000       0.00000000      -4.04865265
Hf       0.00000000       0.00000000       1.06181818       0.00000000       0.00000000       4.04865265
2
Properties=species:S:1:pos:R:3:forces:R:3 energy=0.872767287411518 pbc="F F F"
Hf       0.00000000       0.00000000       0.00000000       0.00000000       0.00000000     -15.77091217
Hf       0.00000000       0.00000000       1.12060606       0.00000000       0.00000000      15.77091217
2
Properties=species:S:1:pos:R:3:forces:R:3 energy=-0.20818532692224107 pbc="F F F"
Hf       0.00000000       0.00000000       0.00000000       0.00000000       0.00000000     -19.30719757
Hf       0.00000000       0.00000000       1.17939394       0.00000000       0.00000000      19.30719757
2
Properties=species:S:1:pos:R:3:forces:R:3 energy=-1.3905505686685056 pbc="F F F"
Hf       0.00000000       0.00000000       0.00000000       0.00000000       0.00000000     -22.63178253
Hf       0.00000000       0.00000000       1.23818182       0.00000000       0.00000000      22.63178253
2
Properties=species:S:1:pos:R:3:forces:R:3 energy=-2.960144595608185 pbc="F F F"
Hf       0.00000000       0.00000000       0.00000000       0.00000000       0.00000000     -29.53994751
Hf       0.00000000       0.00000000       1.29696970       0.00000000       0.00000000      29.53994751
2
Properties=species:S:1:pos:R:3:forces:R:3 energy=-4.672209714276876 pbc="F F F"
Hf       0.00000000       0.00000000       0.00000000       0.00000000       0.00000000     -27.57139397
Hf       0.00000000       0.00000000       1.35575758       0.00000000       0.00000000      27.57139397
2
Properties=species:S:1:pos:R:3:forces:R:3 energy=-6.135706508834591 pbc="F F F"
Hf       0.00000000       0.00000000       0.00000000       0.00000000       0.00000000     -21.99423790
Hf       0.00000000       0.00000000       1.41454545       0.00000000       0.00000000      21.99423790
2
Properties=species:S:1:pos:R:3:forces:R:3 energy=-7.23467480744139 pbc="F F F"
Hf       0.00000000       0.00000000       0.00000000       0.00000000       0.00000000     -15.11400032
Hf       0.00000000       0.00000000       1.47333333       0.00000000       0.00000000      15.11400032
2
Properties=species:S:1:pos:R:3:forces:R:3 energy=-7.883015395776378 pbc="F F F"
Hf       0.00000000       0.00000000       0.00000000       0.00000000       0.00000000      -6.89499807
Hf       0.00000000       0.00000000       1.53212121       0.00000000       0.00000000       6.89499807
2
Properties=species:S:1:pos:R:3:forces:R:3 energy=-8.081145433493072 pbc="F F F"
Hf       0.00000000       0.00000000       0.00000000       0.00000000       0.00000000      -0.44467372
Hf       0.00000000       0.00000000       1.59090909       0.00000000       0.00000000       0.44467372
2
Properties=species:S:1:pos:R:3:forces:R:3 energy=-8.015655045601532 pbc="F F F"
Hf       0.00000000       0.00000000       0.00000000       0.00000000       0.00000000       2.03215909
Hf       0.00000000       0.00000000       1.64969697       0.00000000       0.00000000      -2.03215909
2
Properties=species:S:1:pos:R:3:forces:R:3 energy=-7.9017650715948795 pbc="F F F"
Hf       0.00000000       0.00000000       0.00000000       0.00000000       0.00000000       1.47819817
Hf       0.00000000       0.00000000       1.70848485       0.00000000       0.00000000      -1.47819817
2
Properties=species:S:1:pos:R:3:forces:R:3 energy=-7.86936965085549 pbc="F F F"
Hf       0.00000000       0.00000000       0.00000000       0.00000000       0.00000000      -0.48790708
Hf       0.00000000       0.00000000       1.76727273       0.00000000       0.00000000       0.48790708
2
Properties=species:S:1:pos:R:3:forces:R:3 energy=-7.959719829723165 pbc="F F F"
Hf       0.00000000       0.00000000       0.00000000       0.00000000       0.00000000      -2.50495481
Hf       0.00000000       0.00000000       1.82606061       0.00000000       0.00000000       2.50495481
2
Properties=species:S:1:pos:R:3:forces:R:3 energy=-8.149648427349272 pbc="F F F"
Hf       0.00000000       0.00000000       0.00000000       0.00000000       0.00000000      -3.82478905
Hf       0.00000000       0.00000000       1.88484848       0.00000000       0.00000000       3.82478905
2
Properties=species:S:1:pos:R:3:forces:R:3 energy=-8.395799798232646 pbc="F F F"
Hf       0.00000000       0.00000000       0.00000000       0.00000000       0.00000000      -4.45508718
Hf       0.00000000       0.00000000       1.94363636       0.00000000       0.00000000       4.45508718
2
Properties=species:S:1:pos:R:3:forces:R:3 energy=-8.664747556212939 pbc="F F F"
Hf       0.00000000       0.00000000       0.00000000       0.00000000       0.00000000      -4.63751698
Hf       0.00000000       0.00000000       2.00242424       0.00000000       0.00000000       4.63751698
2
Properties=species:S:1:pos:R:3:forces:R:3 energy=-8.935750105534103 pbc="F F F"
Hf       0.00000000       0.00000000       0.00000000       0.00000000       0.00000000      -4.54631567
Hf       0.00000000       0.00000000       2.06121212       0.00000000       0.00000000       4.54631567
2
Properties=species:S:1:pos:R:3:forces:R:3 energy=-9.195790694766352 pbc="F F F"
Hf       0.00000000       0.00000000       0.00000000       0.00000000       0.00000000      -4.27501535
Hf       0.00000000       0.00000000       2.12000000       0.00000000       0.00000000       4.27501535
2
Properties=species:S:1:pos:R:3:forces:R:3 energy=-9.435670257481364 pbc="F F F"
Hf       0.00000000       0.00000000       0.00000000       0.00000000       0.00000000      -3.86383986
Hf       0.00000000       0.00000000       2.17878788       0.00000000       0.00000000       3.86383986
2
Properties=species:S:1:pos:R:3:forces:R:3 energy=-9.647516490965558 pbc="F F F"
Hf       0.00000000       0.00000000       0.00000000       0.00000000       0.00000000      -3.32143116
Hf       0.00000000       0.00000000       2.23757576       0.00000000       0.00000000       3.32143116
2
Properties=species:S:1:pos:R:3:forces:R:3 energy=-9.823609886304407 pbc="F F F"
Hf       0.00000000       0.00000000       0.00000000       0.00000000       0.00000000      -2.64792538
Hf       0.00000000       0.00000000       2.29636364       0.00000000       0.00000000       2.64792538
2
Properties=species:S:1:pos:R:3:forces:R:3 energy=-9.956552072410226 pbc="F F F"
Hf       0.00000000       0.00000000       0.00000000       0.00000000       0.00000000      -1.85816979
Hf       0.00000000       0.00000000       2.35515152       0.00000000       0.00000000       1.85816979
2
Properties=species:S:1:pos:R:3:forces:R:3 energy=-10.040641229798316 pbc="F F F"
Hf       0.00000000       0.00000000       0.00000000       0.00000000       0.00000000      -0.99572909
Hf       0.00000000       0.00000000       2.41393939       0.00000000       0.00000000       0.99572909
2
Properties=species:S:1:pos:R:3:forces:R:3 energy=-10.073539331871778 pbc="F F F"
Hf       0.00000000       0.00000000       0.00000000       0.00000000       0.00000000      -0.12917924
Hf       0.00000000       0.00000000       2.47272727       0.00000000       0.00000000       0.12917924
2
Properties=species:S:1:pos:R:3:forces:R:3 energy=-10.057197332393644 pbc="F F F"
Hf       0.00000000       0.00000000       0.00000000       0.00000000       0.00000000       0.66819948
Hf       0.00000000       0.00000000       2.53151515       0.00000000       0.00000000      -0.66819948
2
Properties=species:S:1:pos:R:3:forces:R:3 energy=-9.997407549947832 pbc="F F F"
Hf       0.00000000       0.00000000       0.00000000       0.00000000       0.00000000       1.34268165
Hf       0.00000000       0.00000000       2.59030303       0.00000000       0.00000000      -1.34268165
2
Properties=species:S:1:pos:R:3:forces:R:3 energy=-9.902178042711958 pbc="F F F"
Hf       0.00000000       0.00000000       0.00000000       0.00000000       0.00000000       1.87297750
Hf       0.00000000       0.00000000       2.64909091       0.00000000       0.00000000      -1.87297750
2
Properties=species:S:1:pos:R:3:forces:R:3 energy=-9.779871736120546 pbc="F F F"
Hf       0.00000000       0.00000000       0.00000000       0.00000000       0.00000000       2.26690984
Hf       0.00000000       0.00000000       2.70787879       0.00000000       0.00000000      -2.26690984
2
Properties=species:S:1:pos:R:3:forces:R:3 energy=-9.637865058948544 pbc="F F F"
Hf       0.00000000       0.00000000       0.00000000       0.00000000       0.00000000       2.54751015
Hf       0.00000000       0.00000000       2.76666667       0.00000000       0.00000000      -2.54751015
2
Properties=species:S:1:pos:R:3:forces:R:3 energy=-9.482106550014374 pbc="F F F"
Hf       0.00000000       0.00000000       0.00000000       0.00000000       0.00000000       2.73793578
Hf       0.00000000       0.00000000       2.82545455       0.00000000       0.00000000      -2.73793578
2
Properties=species:S:1:pos:R:3:forces:R:3 energy=-9.31743641446427 pbc="F F F"
Hf       0.00000000       0.00000000       0.00000000       0.00000000       0.00000000       2.85211468
Hf       0.00000000       0.00000000       2.88424242       0.00000000       0.00000000      -2.85211468
2
Properties=species:S:1:pos:R:3:forces:R:3 energy=-9.148181017028078 pbc="F F F"
Hf       0.00000000       0.00000000       0.00000000       0.00000000       0.00000000       2.89397478
Hf       0.00000000       0.00000000       2.94303030       0.00000000       0.00000000      -2.89397478
2
Properties=species:S:1:pos:R:3:forces:R:3 energy=-8.978597046681019 pbc="F F F"
Hf       0.00000000       0.00000000       0.00000000       0.00000000       0.00000000       2.86339045
Hf       0.00000000       0.00000000       3.00181818       0.00000000       0.00000000      -2.86339045
2
Properties=species:S:1:pos:R:3:forces:R:3 energy=-8.812873177861299 pbc="F F F"
Hf       0.00000000       0.00000000       0.00000000       0.00000000       0.00000000       2.76383924
Hf       0.00000000       0.00000000       3.06060606       0.00000000       0.00000000      -2.76383924
2
Properties=species:S:1:pos:R:3:forces:R:3 energy=-8.654768103673389 pbc="F F F"
Hf       0.00000000       0.00000000       0.00000000       0.00000000       0.00000000       2.60688829
Hf       0.00000000       0.00000000       3.11939394       0.00000000       0.00000000      -2.60688829
2
Properties=species:S:1:pos:R:3:forces:R:3 energy=-8.507117112420275 pbc="F F F"
Hf       0.00000000       0.00000000       0.00000000       0.00000000       0.00000000       2.41170287
Hf       0.00000000       0.00000000       3.17818182       0.00000000       0.00000000      -2.41170287
2
Properties=species:S:1:pos:R:3:forces:R:3 energy=-8.371523164303815 pbc="F F F"
Hf       0.00000000       0.00000000       0.00000000       0.00000000       0.00000000       2.20036817
Hf       0.00000000       0.00000000       3.23696970       0.00000000       0.00000000      -2.20036817
2
Properties=species:S:1:pos:R:3:forces:R:3 energy=-8.248377053770307 pbc="F F F"
Hf       0.00000000       0.00000000       0.00000000       0.00000000       0.00000000       1.99024773
Hf       0.00000000       0.00000000       3.29575758       0.00000000       0.00000000      -1.99024773
2
Properties=species:S:1:pos:R:3:forces:R:3 energy=-8.137373733658073 pbc="F F F"
Hf       0.00000000       0.00000000       0.00000000       0.00000000       0.00000000       1.78711820
Hf       0.00000000       0.00000000       3.35454545       0.00000000       0.00000000      -1.78711820
2
Properties=species:S:1:pos:R:3:forces:R:3 energy=-8.038200632085461 pbc="F F F"
Hf       0.00000000       0.00000000       0.00000000       0.00000000       0.00000000       1.58672106
Hf       0.00000000       0.00000000       3.41333333       0.00000000       0.00000000      -1.58672106
2
Properties=species:S:1:pos:R:3:forces:R:3 energy=-7.95086123751419 pbc="F F F"
Hf       0.00000000       0.00000000       0.00000000       0.00000000       0.00000000       1.38409543
Hf       0.00000000       0.00000000       3.47212121       0.00000000       0.00000000      -1.38409543
2
Properties=species:S:1:pos:R:3:forces:R:3 energy=-7.875501597508357 pbc="F F F"
Hf       0.00000000       0.00000000       0.00000000       0.00000000       0.00000000       1.17977548
Hf       0.00000000       0.00000000       3.53090909       0.00000000       0.00000000      -1.17977548
2
Properties=species:S:1:pos:R:3:forces:R:3 energy=-7.812065731701021 pbc="F F F"
Hf       0.00000000       0.00000000       0.00000000       0.00000000       0.00000000       0.97981232
Hf       0.00000000       0.00000000       3.58969697       0.00000000       0.00000000      -0.97981232
2
Properties=species:S:1:pos:R:3:forces:R:3 energy=-7.760024041314726 pbc="F F F"
Hf       0.00000000       0.00000000       0.00000000       0.00000000       0.00000000       0.79391724
Hf       0.00000000       0.00000000       3.64848485       0.00000000       0.00000000      -0.79391724
2
Properties=species:S:1:pos:R:3:forces:R:3 energy=-7.718225457520856 pbc="F F F"
Hf       0.00000000       0.00000000       0.00000000       0.00000000       0.00000000       0.63321894
Hf       0.00000000       0.00000000       3.70727273       0.00000000       0.00000000      -0.63321894
2
Properties=species:S:1:pos:R:3:forces:R:3 energy=-7.684884579768994 pbc="F F F"
Hf       0.00000000       0.00000000       0.00000000       0.00000000       0.00000000       0.50752825
Hf       0.00000000       0.00000000       3.76606061       0.00000000       0.00000000      -0.50752825
2
Properties=species:S:1:pos:R:3:forces:R:3 energy=-7.657747739978008 pbc="F F F"
Hf       0.00000000       0.00000000       0.00000000       0.00000000       0.00000000       0.42268914
Hf       0.00000000       0.00000000       3.82484848       0.00000000       0.00000000      -0.42268914
2
Properties=species:S:1:pos:R:3:forces:R:3 energy=-7.634376630347657 pbc="F F F"
Hf       0.00000000       0.00000000       0.00000000       0.00000000       0.00000000       0.37900898
Hf       0.00000000       0.00000000       3.88363636       0.00000000       0.00000000      -0.37900898
2
Properties=species:S:1:pos:R:3:forces:R:3 energy=-7.612475555721571 pbc="F F F"
Hf       0.00000000       0.00000000       0.00000000       0.00000000       0.00000000       0.37143856
Hf       0.00000000       0.00000000       3.94242424       0.00000000       0.00000000      -0.37143856
2
Properties=species:S:1:pos:R:3:forces:R:3 energy=-7.590169692419867 pbc="F F F"
Hf       0.00000000       0.00000000       0.00000000       0.00000000       0.00000000       0.39111838
Hf       0.00000000       0.00000000       4.00121212       0.00000000       0.00000000      -0.39111838
2
Properties=species:S:1:pos:R:3:forces:R:3 energy=-7.566161641218669 pbc="F F F"
Hf       0.00000000       0.00000000       0.00000000       0.00000000       0.00000000       0.42755169
Hf       0.00000000       0.00000000       4.06000000       0.00000000       0.00000000      -0.42755169
2
Properties=species:S:1:pos:R:3:forces:R:3 energy=-7.539771494342689 pbc="F F F"
Hf       0.00000000       0.00000000       0.00000000       0.00000000       0.00000000       0.47057524
Hf       0.00000000       0.00000000       4.11878788       0.00000000       0.00000000      -0.47057524
2
Properties=species:S:1:pos:R:3:forces:R:3 energy=-7.510871743193381 pbc="F F F"
Hf       0.00000000       0.00000000       0.00000000       0.00000000       0.00000000       0.51170629
Hf       0.00000000       0.00000000       4.17757576       0.00000000       0.00000000      -0.51170629
2
Properties=species:S:1:pos:R:3:forces:R:3 energy=-7.479766454814247 pbc="F F F"
Hf       0.00000000       0.00000000       0.00000000       0.00000000       0.00000000       0.54478288
Hf       0.00000000       0.00000000       4.23636364       0.00000000       0.00000000      -0.54478288
2
Properties=species:S:1:pos:R:3:forces:R:3 energy=-7.447050299154391 pbc="F F F"
Hf       0.00000000       0.00000000       0.00000000       0.00000000       0.00000000       0.56606621
Hf       0.00000000       0.00000000       4.29515152       0.00000000       0.00000000      -0.56606621
2
Properties=species:S:1:pos:R:3:forces:R:3 energy=-7.4134742077028 pbc="F F F"
Hf       0.00000000       0.00000000       0.00000000       0.00000000       0.00000000       0.57400703
Hf       0.00000000       0.00000000       4.35393939       0.00000000       0.00000000      -0.57400703
2
Properties=species:S:1:pos:R:3:forces:R:3 energy=-7.37982076059894 pbc="F F F"
Hf       0.00000000       0.00000000       0.00000000       0.00000000       0.00000000       0.56878227
Hf       0.00000000       0.00000000       4.41272727       0.00000000       0.00000000      -0.56878227
2
Properties=species:S:1:pos:R:3:forces:R:3 energy=-7.346830409921769 pbc="F F F"
Hf       0.00000000       0.00000000       0.00000000       0.00000000       0.00000000       0.55174786
Hf       0.00000000       0.00000000       4.47151515       0.00000000       0.00000000      -0.55174786
2
Properties=species:S:1:pos:R:3:forces:R:3 energy=-7.315141442557313 pbc="F F F"
Hf       0.00000000       0.00000000       0.00000000       0.00000000       0.00000000       0.52483654
Hf       0.00000000       0.00000000       4.53030303       0.00000000       0.00000000      -0.52483654
2
Properties=species:S:1:pos:R:3:forces:R:3 energy=-7.2852766541008105 pbc="F F F"
Hf       0.00000000       0.00000000       0.00000000       0.00000000       0.00000000       0.49004585
Hf       0.00000000       0.00000000       4.58909091       0.00000000       0.00000000      -0.49004585
2
Properties=species:S:1:pos:R:3:forces:R:3 energy=-7.257644112461702 pbc="F F F"
Hf       0.00000000       0.00000000       0.00000000       0.00000000       0.00000000       0.44913656
Hf       0.00000000       0.00000000       4.64787879       0.00000000       0.00000000      -0.44913656
2
Properties=species:S:1:pos:R:3:forces:R:3 energy=-7.2325595612105875 pbc="F F F"
Hf       0.00000000       0.00000000       0.00000000       0.00000000       0.00000000       0.40358037
Hf       0.00000000       0.00000000       4.70666667       0.00000000       0.00000000      -0.40358037
2
Properties=species:S:1:pos:R:3:forces:R:3 energy=-7.210256346124359 pbc="F F F"
Hf       0.00000000       0.00000000       0.00000000       0.00000000       0.00000000       0.35478732
Hf       0.00000000       0.00000000       4.76545455       0.00000000       0.00000000      -0.35478732
2
Properties=species:S:1:pos:R:3:forces:R:3 energy=-7.190876922320364 pbc="F F F"
Hf       0.00000000       0.00000000       0.00000000       0.00000000       0.00000000       0.30438176
Hf       0.00000000       0.00000000       4.82424242       0.00000000       0.00000000      -0.30438176
2
Properties=species:S:1:pos:R:3:forces:R:3 energy=-7.174459952806571 pbc="F F F"
Hf       0.00000000       0.00000000       0.00000000       0.00000000       0.00000000       0.25445488
Hf       0.00000000       0.00000000       4.88303030       0.00000000       0.00000000      -0.25445488
2
Properties=species:S:1:pos:R:3:forces:R:3 energy=-7.160902468787656 pbc="F F F"
Hf       0.00000000       0.00000000       0.00000000       0.00000000       0.00000000       0.20746647
Hf       0.00000000       0.00000000       4.94181818       0.00000000       0.00000000      -0.20746647
2
Properties=species:S:1:pos:R:3:forces:R:3 energy=-7.149957788086157 pbc="F F F"
Hf       0.00000000       0.00000000       0.00000000       0.00000000       0.00000000       0.16596548
Hf       0.00000000       0.00000000       5.00060606       0.00000000       0.00000000      -0.16596548
2
Properties=species:S:1:pos:R:3:forces:R:3 energy=-7.141239421706581 pbc="F F F"
Hf       0.00000000       0.00000000       0.00000000       0.00000000       0.00000000       0.13202609
Hf       0.00000000       0.00000000       5.05939394       0.00000000       0.00000000      -0.13202609
2
Properties=species:S:1:pos:R:3:forces:R:3 energy=-7.1342637959424895 pbc="F F F"
Hf       0.00000000       0.00000000       0.00000000       0.00000000       0.00000000       0.10678025
Hf       0.00000000       0.00000000       5.11818182       0.00000000       0.00000000      -0.10678025
2
Properties=species:S:1:pos:R:3:forces:R:3 energy=-7.128515143411704 pbc="F F F"
Hf       0.00000000       0.00000000       0.00000000       0.00000000       0.00000000       0.09015886
Hf       0.00000000       0.00000000       5.17696970       0.00000000       0.00000000      -0.09015886
2
Properties=species:S:1:pos:R:3:forces:R:3 energy=-7.123517925283552 pbc="F F F"
Hf       0.00000000       0.00000000       0.00000000       0.00000000       0.00000000       0.08093436
Hf       0.00000000       0.00000000       5.23575758       0.00000000       0.00000000      -0.08093436
2
Properties=species:S:1:pos:R:3:forces:R:3 energy=-7.118894449379456 pbc="F F F"
Hf       0.00000000       0.00000000       0.00000000       0.00000000       0.00000000       0.07705780
Hf       0.00000000       0.00000000       5.29454545       0.00000000       0.00000000      -0.07705780
2
Properties=species:S:1:pos:R:3:forces:R:3 energy=-7.114400152954823 pbc="F F F"
Hf       0.00000000       0.00000000       0.00000000       0.00000000       0.00000000       0.07613007
Hf       0.00000000       0.00000000       5.35333333       0.00000000       0.00000000      -0.07613007
2
Properties=species:S:1:pos:R:3:forces:R:3 energy=-7.109929665365742 pbc="F F F"
Hf       0.00000000       0.00000000       0.00000000       0.00000000       0.00000000       0.07589872
Hf       0.00000000       0.00000000       5.41212121       0.00000000       0.00000000      -0.07589872
2
Properties=species:S:1:pos:R:3:forces:R:3 energy=-7.105496780908345 pbc="F F F"
Hf       0.00000000       0.00000000       0.00000000       0.00000000       0.00000000       0.07462888
Hf       0.00000000       0.00000000       5.47090909       0.00000000       0.00000000      -0.07462888
2
Properties=species:S:1:pos:R:3:forces:R:3 energy=-7.101195752645612 pbc="F F F"
Hf       0.00000000       0.00000000       0.00000000       0.00000000       0.00000000       0.07131637
Hf       0.00000000       0.00000000       5.52969697       0.00000000       0.00000000      -0.07131637
2
Properties=species:S:1:pos:R:3:forces:R:3 energy=-7.097157852708647 pbc="F F F"
Hf       0.00000000       0.00000000       0.00000000       0.00000000       0.00000000       0.06569073
Hf       0.00000000       0.00000000       5.58848485       0.00000000       0.00000000      -0.06569073
2
Properties=species:S:1:pos:R:3:forces:R:3 energy=-7.093510354797602 pbc="F F F"
Hf       0.00000000       0.00000000       0.00000000       0.00000000       0.00000000       0.05812304
Hf       0.00000000       0.00000000       5.64727273       0.00000000       0.00000000      -0.05812304
2
Properties=species:S:1:pos:R:3:forces:R:3 energy=-7.090347355248189 pbc="F F F"
Hf       0.00000000       0.00000000       0.00000000       0.00000000       0.00000000       0.04939649
Hf       0.00000000       0.00000000       5.70606061       0.00000000       0.00000000      -0.04939649
2
Properties=species:S:1:pos:R:3:forces:R:3 energy=-7.087704487990998 pbc="F F F"
Hf       0.00000000       0.00000000       0.00000000       0.00000000       0.00000000       0.04047261
Hf       0.00000000       0.00000000       5.76484848       0.00000000       0.00000000      -0.04047261
2
Properties=species:S:1:pos:R:3:forces:R:3 energy=-7.085572320341449 pbc="F F F"
Hf       0.00000000       0.00000000       0.00000000       0.00000000       0.00000000       0.03231515
Hf       0.00000000       0.00000000       5.82363636       0.00000000       0.00000000      -0.03231515
2
Properties=species:S:1:pos:R:3:forces:R:3 energy=-7.083876660124299 pbc="F F F"
Hf       0.00000000       0.00000000       0.00000000       0.00000000       0.00000000       0.02573357
Hf       0.00000000       0.00000000       5.88242424       0.00000000       0.00000000      -0.02573357
2
Properties=species:S:1:pos:R:3:forces:R:3 energy=-7.08250439357921 pbc="F F F"
Hf       0.00000000       0.00000000       0.00000000       0.00000000       0.00000000       0.02130380
Hf       0.00000000       0.00000000       5.94121212       0.00000000       0.00000000      -0.02130380
2
Properties=species:S:1:pos:R:3:forces:R:3 energy=-7.081321576662359 pbc="F F F"
Hf       0.00000000       0.00000000       0.00000000       0.00000000       0.00000000       0.01939954
Hf       0.00000000       0.00000000       6.00000000       0.00000000       0.00000000      -0.01939954
