2
Properties=species:S:1:pos:R:3:forces:R:3 energy=2293.1889579284357 pbc="F F F"
K        0.00000000       0.00000000       0.00000000       0.00000000       0.00000000  -33653.76953125
K        0.00000000       0.00000000       0.18000000       0.00000000       0.00000000   33653.76953125
2
Properties=species:S:1:pos:R:3:forces:R:3 energy=1052.4509208190607 pbc="F F F"
K        0.00000000       0.00000000       0.00000000       0.00000000       0.00000000  -12626.37304688
K        0.00000000       0.00000000       0.23878788       0.00000000       0.00000000   12626.37304688
2
Properties=species:S:1:pos:R:3:forces:R:3 energy=551.5242850768731 pbc="F F F"
K        0.00000000       0.00000000       0.00000000       0.00000000       0.00000000   -5553.14501953
K        0.00000000       0.00000000       0.29757576       0.00000000       0.00000000    5553.14501953
2
Properties=species:S:1:pos:R:3:forces:R:3 energy=320.11104655306633 pbc="F F F"
K        0.00000000       0.00000000       0.00000000       0.00000000       0.00000000   -2711.97705078
K        0.00000000       0.00000000       0.35636364       0.00000000       0.00000000    2711.97705078
2
Properties=species:S:1:pos:R:3:forces:R:3 energy=203.21236491244136 pbc="F F F"
K        0.00000000       0.00000000       0.00000000       0.00000000       0.00000000   -1422.32006836
K        0.00000000       0.00000000       0.41515152       0.00000000       0.00000000    1422.32006836
2
Properties=species:S:1:pos:R:3:forces:R:3 energy=140.41455912947637 pbc="F F F"
K        0.00000000       0.00000000       0.00000000       0.00000000       0.00000000    -784.58532715
K        0.00000000       0.00000000       0.47393939       0.00000000       0.00000000     784.58532715
2
Properties=species:S:1:pos:R:3:forces:R:3 energy=105.15324474055434 pbc="F F F"
K        0.00000000       0.00000000       0.00000000       0.00000000       0.00000000    -449.25012207
K        0.00000000       0.00000000       0.53272727       0.00000000       0.00000000     449.25012207
2
Properties=species:S:1:pos:R:3:forces:R:3 energy=84.68773723956578 pbc="F F F"
K        0.00000000       0.00000000       0.00000000       0.00000000       0.00000000    -264.63906860
K        0.00000000       0.00000000       0.59151515       0.00000000       0.00000000     264.63906860
2
Properties=species:S:1:pos:R:3:forces:R:3 energy=72.5052802788544 pbc="F F F"
K        0.00000000       0.00000000       0.00000000       0.00000000       0.00000000    -159.35704041
K        0.00000000       0.00000000       0.65030303       0.00000000       0.00000000     159.35704041
2
Properties=species:S:1:pos:R:3:forces:R:3 energy=65.10428694752554 pbc="F F F"
K        0.00000000       0.00000000       0.00000000       0.00000000       0.00000000     -97.83757019
K        0.00000000       0.00000000       0.70909091       0.00000000       0.00000000      97.83757019
2
Properties=species:S:1:pos:R:3:forces:R:3 energy=60.509198010960056 pbc="F F F"
K        0.00000000       0.00000000       0.00000000       0.00000000       0.00000000     -61.74275208
K        0.00000000       0.00000000       0.76787879       0.00000000       0.00000000      61.74275208
2
Properties=species:S:1:pos:R:3:forces:R:3 energy=57.53667149551313 pbc="F F F"
K        0.00000000       0.00000000       0.00000000       0.00000000       0.00000000     -41.52038574
K        0.00000000       0.00000000       0.82666667       0.00000000       0.00000000      41.52038574
2
Properties=species:S:1:pos:R:3:forces:R:3 energy=55.413842108942426 pbc="F F F"
K        0.00000000       0.00000000       0.00000000       0.00000000       0.00000000     -32.27281570
K        0.00000000       0.00000000       0.88545455       0.00000000       0.00000000      32.27281570
2
Properties=species:S:1:pos:R:3:forces:R:3 energy=53.576065994552486 pbc="F F F"
K        0.00000000       0.00000000       0.00000000       0.00000000       0.00000000     -31.53528214
K        0.00000000       0.00000000       0.94424242       0.00000000       0.00000000      31.53528214
2
Properties=species:S:1:pos:R:3:forces:R:3 energy=51.56719692161239 pbc="F F F"
K        0.00000000       0.00000000       0.00000000       0.00000000       0.00000000     -37.88234329
K        0.00000000       0.00000000       1.00303030       0.00000000       0.00000000      37.88234329
2
Properties=species:S:1:pos:R:3:forces:R:3 energy=49.010243621317315 pbc="F F F"
K        0.00000000       0.00000000       0.00000000       0.00000000       0.00000000     -49.90993118
K        0.00000000       0.00000000       1.06181818       0.00000000       0.00000000      49.90993118
2
Properties=species:S:1:pos:R:3:forces:R:3 energy=45.62858714881902 pbc="F F F"
K        0.00000000       0.00000000       0.00000000       0.00000000       0.00000000     -65.49967957
K        0.00000000       0.00000000       1.12060606       0.00000000       0.00000000      65.49967957
2
Properties=species:S:1:pos:R:3:forces:R:3 energy=41.29989779853908 pbc="F F F"
K        0.00000000       0.00000000       0.00000000       0.00000000       0.00000000     -81.53086090
K        0.00000000       0.00000000       1.17939394       0.00000000       0.00000000      81.53086090
2
Properties=species:S:1:pos:R:3:forces:R:3 energy=36.10788912097857 pbc="F F F"
K        0.00000000       0.00000000       0.00000000       0.00000000       0.00000000     -94.23639679
K        0.00000000       0.00000000       1.23818182       0.00000000       0.00000000      94.23639679
2
Properties=species:S:1:pos:R:3:forces:R:3 energy=30.352838837185807 pbc="F F F"
K        0.00000000       0.00000000       0.00000000       0.00000000       0.00000000    -100.21983337
K        0.00000000       0.00000000       1.29696970       0.00000000       0.00000000     100.21983337
2
Properties=species:S:1:pos:R:3:forces:R:3 energy=24.49074443162483 pbc="F F F"
K        0.00000000       0.00000000       0.00000000       0.00000000       0.00000000     -97.80590820
K        0.00000000       0.00000000       1.35575758       0.00000000       0.00000000      97.80590820
2
Properties=species:S:1:pos:R:3:forces:R:3 energy=19.00223108064219 pbc="F F F"
K        0.00000000       0.00000000       0.00000000       0.00000000       0.00000000     -87.86867523
K        0.00000000       0.00000000       1.41454545       0.00000000       0.00000000      87.86867523
2
Properties=species:S:1:pos:R:3:forces:R:3 energy=14.245821219989868 pbc="F F F"
K        0.00000000       0.00000000       0.00000000       0.00000000       0.00000000     -73.56156921
K        0.00000000       0.00000000       1.47333333       0.00000000       0.00000000      73.56156921
2
Properties=species:S:1:pos:R:3:forces:R:3 energy=10.358970818424844 pbc="F F F"
K        0.00000000       0.00000000       0.00000000       0.00000000       0.00000000     -58.90096283
K        0.00000000       0.00000000       1.53212121       0.00000000       0.00000000      58.90096283
2
Properties=species:S:1:pos:R:3:forces:R:3 energy=7.276451445406101 pbc="F F F"
K        0.00000000       0.00000000       0.00000000       0.00000000       0.00000000     -46.40141678
K        0.00000000       0.00000000       1.59090909       0.00000000       0.00000000      46.40141678
2
Properties=species:S:1:pos:R:3:forces:R:3 energy=4.856483239350338 pbc="F F F"
K        0.00000000       0.00000000       0.00000000       0.00000000       0.00000000     -36.25935745
K        0.00000000       0.00000000       1.64969697       0.00000000       0.00000000      36.25935745
2
Properties=species:S:1:pos:R:3:forces:R:3 energy=2.9831242369286466 pbc="F F F"
K        0.00000000       0.00000000       0.00000000       0.00000000       0.00000000     -27.66339111
K        0.00000000       0.00000000       1.70848485       0.00000000       0.00000000      27.66339111
2
Properties=species:S:1:pos:R:3:forces:R:3 energy=1.5860956026780124 pbc="F F F"
K        0.00000000       0.00000000       0.00000000       0.00000000       0.00000000     -20.00222969
K        0.00000000       0.00000000       1.76727273       0.00000000       0.00000000      20.00222969
2
Properties=species:S:1:pos:R:3:forces:R:3 energy=0.6126143748934529 pbc="F F F"
K        0.00000000       0.00000000       0.00000000       0.00000000       0.00000000     -13.31355858
K        0.00000000       0.00000000       1.82606061       0.00000000       0.00000000      13.31355858
2
Properties=species:S:1:pos:R:3:forces:R:3 energy=-0.007703620426397939 pbc="F F F"
K        0.00000000       0.00000000       0.00000000       0.00000000       0.00000000      -8.06852531
K        0.00000000       0.00000000       1.88484848       0.00000000       0.00000000       8.06852531
2
Properties=species:S:1:pos:R:3:forces:R:3 energy=-0.37028651533324874 pbc="F F F"
K        0.00000000       0.00000000       0.00000000       0.00000000       0.00000000      -4.55231047
K        0.00000000       0.00000000       1.94363636       0.00000000       0.00000000       4.55231047
2
Properties=species:S:1:pos:R:3:forces:R:3 energy=-0.5732482804413874 pbc="F F F"
K        0.00000000       0.00000000       0.00000000       0.00000000       0.00000000      -2.57305789
K        0.00000000       0.00000000       2.00242424       0.00000000       0.00000000       2.57305789
2
Properties=species:S:1:pos:R:3:forces:R:3 energy=-0.6936078394013084 pbc="F F F"
K        0.00000000       0.00000000       0.00000000       0.00000000       0.00000000      -1.65503800
K        0.00000000       0.00000000       2.06121212       0.00000000       0.00000000       1.65503800
2
Properties=species:S:1:pos:R:3:forces:R:3 energy=-0.7789688299010155 pbc="F F F"
K        0.00000000       0.00000000       0.00000000       0.00000000       0.00000000      -1.31054604
K        0.00000000       0.00000000       2.12000000       0.00000000       0.00000000       1.31054604
2
Properties=species:S:1:pos:R:3:forces:R:3 energy=-0.85220013830051 pbc="F F F"
K        0.00000000       0.00000000       0.00000000       0.00000000       0.00000000      -1.20193458
K        0.00000000       0.00000000       2.17878788       0.00000000       0.00000000       1.20193458
2
Properties=species:S:1:pos:R:3:forces:R:3 energy=-0.9216088158408301 pbc="F F F"
K        0.00000000       0.00000000       0.00000000       0.00000000       0.00000000      -1.16409743
K        0.00000000       0.00000000       2.23757576       0.00000000       0.00000000       1.16409743
2
Properties=species:S:1:pos:R:3:forces:R:3 energy=-0.989226363294081 pbc="F F F"
K        0.00000000       0.00000000       0.00000000       0.00000000       0.00000000      -1.13561773
K        0.00000000       0.00000000       2.29636364       0.00000000       0.00000000       1.13561773
2
Properties=species:S:1:pos:R:3:forces:R:3 energy=-1.0549605520999101 pbc="F F F"
K        0.00000000       0.00000000       0.00000000       0.00000000       0.00000000      -1.09889591
K        0.00000000       0.00000000       2.35515152       0.00000000       0.00000000       1.09889591
2
Properties=species:S:1:pos:R:3:forces:R:3 energy=-1.1182257385289593 pbc="F F F"
K        0.00000000       0.00000000       0.00000000       0.00000000       0.00000000      -1.05181563
K        0.00000000       0.00000000       2.41393939       0.00000000       0.00000000       1.05181563
2
Properties=species:S:1:pos:R:3:forces:R:3 energy=-1.1784564816586265 pbc="F F F"
K        0.00000000       0.00000000       0.00000000       0.00000000       0.00000000      -0.99596286
K        0.00000000       0.00000000       2.47272727       0.00000000       0.00000000       0.99596286
2
Properties=species:S:1:pos:R:3:forces:R:3 energy=-1.235172073028603 pbc="F F F"
K        0.00000000       0.00000000       0.00000000       0.00000000       0.00000000      -0.93221784
K        0.00000000       0.00000000       2.53151515       0.00000000       0.00000000       0.93221784
2
Properties=species:S:1:pos:R:3:forces:R:3 energy=-1.287886883335577 pbc="F F F"
K        0.00000000       0.00000000       0.00000000       0.00000000       0.00000000      -0.85947543
K        0.00000000       0.00000000       2.59030303       0.00000000       0.00000000       0.85947543
2
Properties=species:S:1:pos:R:3:forces:R:3 energy=-1.3360015813726698 pbc="F F F"
K        0.00000000       0.00000000       0.00000000       0.00000000       0.00000000      -0.77524757
K        0.00000000       0.00000000       2.64909091       0.00000000       0.00000000       0.77524757
2
Properties=species:S:1:pos:R:3:forces:R:3 energy=-1.3787694615728978 pbc="F F F"
K        0.00000000       0.00000000       0.00000000       0.00000000       0.00000000      -0.67741960
K        0.00000000       0.00000000       2.70787879       0.00000000       0.00000000       0.67741960
2
Properties=species:S:1:pos:R:3:forces:R:3 energy=-1.4153844363039696 pbc="F F F"
K        0.00000000       0.00000000       0.00000000       0.00000000       0.00000000      -0.56618226
K        0.00000000       0.00000000       2.76666667       0.00000000       0.00000000       0.56618226
2
Properties=species:S:1:pos:R:3:forces:R:3 energy=-1.445139593726856 pbc="F F F"
K        0.00000000       0.00000000       0.00000000       0.00000000       0.00000000      -0.44488412
K        0.00000000       0.00000000       2.82545455       0.00000000       0.00000000       0.44488412
2
Properties=species:S:1:pos:R:3:forces:R:3 energy=-1.4676071784804348 pbc="F F F"
K        0.00000000       0.00000000       0.00000000       0.00000000       0.00000000      -0.31926286
K        0.00000000       0.00000000       2.88424242       0.00000000       0.00000000       0.31926286
2
Properties=species:S:1:pos:R:3:forces:R:3 energy=-1.4827190147703775 pbc="F F F"
K        0.00000000       0.00000000       0.00000000       0.00000000       0.00000000      -0.19572337
K        0.00000000       0.00000000       2.94303030       0.00000000       0.00000000       0.19572337
2
Properties=species:S:1:pos:R:3:forces:R:3 energy=-1.4907687143248554 pbc="F F F"
K        0.00000000       0.00000000       0.00000000       0.00000000       0.00000000      -0.07975531
K        0.00000000       0.00000000       3.00181818       0.00000000       0.00000000       0.07975531
2
Properties=species:S:1:pos:R:3:forces:R:3 energy=-1.4923187933510436 pbc="F F F"
K        0.00000000       0.00000000       0.00000000       0.00000000       0.00000000       0.02492887
K        0.00000000       0.00000000       3.06060606       0.00000000       0.00000000      -0.02492887
2
Properties=species:S:1:pos:R:3:forces:R:3 energy=-1.488094941398888 pbc="F F F"
K        0.00000000       0.00000000       0.00000000       0.00000000       0.00000000       0.11654578
K        0.00000000       0.00000000       3.11939394       0.00000000       0.00000000      -0.11654578
2
Properties=species:S:1:pos:R:3:forces:R:3 energy=-1.4788749424778673 pbc="F F F"
K        0.00000000       0.00000000       0.00000000       0.00000000       0.00000000       0.19499268
K        0.00000000       0.00000000       3.17818182       0.00000000       0.00000000      -0.19499268
2
Properties=species:S:1:pos:R:3:forces:R:3 energy=-1.4654061390470678 pbc="F F F"
K        0.00000000       0.00000000       0.00000000       0.00000000       0.00000000       0.26132280
K        0.00000000       0.00000000       3.23696970       0.00000000       0.00000000      -0.26132280
2
Properties=species:S:1:pos:R:3:forces:R:3 energy=-1.4483582742377625 pbc="F F F"
K        0.00000000       0.00000000       0.00000000       0.00000000       0.00000000       0.31699604
K        0.00000000       0.00000000       3.29575758       0.00000000       0.00000000      -0.31699604
2
Properties=species:S:1:pos:R:3:forces:R:3 energy=-1.4283216546128263 pbc="F F F"
K        0.00000000       0.00000000       0.00000000       0.00000000       0.00000000       0.36313578
K        0.00000000       0.00000000       3.35454545       0.00000000       0.00000000      -0.36313578
2
Properties=species:S:1:pos:R:3:forces:R:3 energy=-1.4058408032003842 pbc="F F F"
K        0.00000000       0.00000000       0.00000000       0.00000000       0.00000000       0.40015432
K        0.00000000       0.00000000       3.41333333       0.00000000       0.00000000      -0.40015432
2
Properties=species:S:1:pos:R:3:forces:R:3 energy=-1.3814535506373171 pbc="F F F"
K        0.00000000       0.00000000       0.00000000       0.00000000       0.00000000       0.42795053
K        0.00000000       0.00000000       3.47212121       0.00000000       0.00000000      -0.42795053
2
Properties=species:S:1:pos:R:3:forces:R:3 energy=-1.355705451157784 pbc="F F F"
K        0.00000000       0.00000000       0.00000000       0.00000000       0.00000000       0.44651657
K        0.00000000       0.00000000       3.53090909       0.00000000       0.00000000      -0.44651657
2
Properties=species:S:1:pos:R:3:forces:R:3 energy=-1.329122597707512 pbc="F F F"
K        0.00000000       0.00000000       0.00000000       0.00000000       0.00000000       0.45653066
K        0.00000000       0.00000000       3.58969697       0.00000000       0.00000000      -0.45653066
2
Properties=species:S:1:pos:R:3:forces:R:3 energy=-1.3021649089093545 pbc="F F F"
K        0.00000000       0.00000000       0.00000000       0.00000000       0.00000000       0.45958352
K        0.00000000       0.00000000       3.64848485       0.00000000       0.00000000      -0.45958352
2
Properties=species:S:1:pos:R:3:forces:R:3 energy=-1.2751789625343997 pbc="F F F"
K        0.00000000       0.00000000       0.00000000       0.00000000       0.00000000       0.45792830
K        0.00000000       0.00000000       3.70727273       0.00000000       0.00000000      -0.45792830
2
Properties=species:S:1:pos:R:3:forces:R:3 energy=-1.2483693622658052 pbc="F F F"
K        0.00000000       0.00000000       0.00000000       0.00000000       0.00000000       0.45392939
K        0.00000000       0.00000000       3.76606061       0.00000000       0.00000000      -0.45392939
2
Properties=species:S:1:pos:R:3:forces:R:3 energy=-1.2218153167976282 pbc="F F F"
K        0.00000000       0.00000000       0.00000000       0.00000000       0.00000000       0.44952628
K        0.00000000       0.00000000       3.82484848       0.00000000       0.00000000      -0.44952628
2
Properties=species:S:1:pos:R:3:forces:R:3 energy=-1.1955001632290136 pbc="F F F"
K        0.00000000       0.00000000       0.00000000       0.00000000       0.00000000       0.44589916
K        0.00000000       0.00000000       3.88363636       0.00000000       0.00000000      -0.44589916
2
Properties=species:S:1:pos:R:3:forces:R:3 energy=-1.1693663358101098 pbc="F F F"
K        0.00000000       0.00000000       0.00000000       0.00000000       0.00000000       0.44335634
K        0.00000000       0.00000000       3.94242424       0.00000000       0.00000000      -0.44335634
2
Properties=species:S:1:pos:R:3:forces:R:3 energy=-1.1433609831824894 pbc="F F F"
K        0.00000000       0.00000000       0.00000000       0.00000000       0.00000000       0.44137871
K        0.00000000       0.00000000       4.00121212       0.00000000       0.00000000      -0.44137871
2
Properties=species:S:1:pos:R:3:forces:R:3 energy=-1.1174823494007418 pbc="F F F"
K        0.00000000       0.00000000       0.00000000       0.00000000       0.00000000       0.43881124
K        0.00000000       0.00000000       4.06000000       0.00000000       0.00000000      -0.43881124
2
Properties=species:S:1:pos:R:3:forces:R:3 energy=-1.0918081504478643 pbc="F F F"
K        0.00000000       0.00000000       0.00000000       0.00000000       0.00000000       0.43417230
K        0.00000000       0.00000000       4.11878788       0.00000000       0.00000000      -0.43417230
2
Properties=species:S:1:pos:R:3:forces:R:3 energy=-1.0665036415103204 pbc="F F F"
K        0.00000000       0.00000000       0.00000000       0.00000000       0.00000000       0.42599770
K        0.00000000       0.00000000       4.17757576       0.00000000       0.00000000      -0.42599770
2
Properties=species:S:1:pos:R:3:forces:R:3 energy=-1.0418142027573862 pbc="F F F"
K        0.00000000       0.00000000       0.00000000       0.00000000       0.00000000       0.41307664
K        0.00000000       0.00000000       4.23636364       0.00000000       0.00000000      -0.41307664
2
Properties=species:S:1:pos:R:3:forces:R:3 energy=-1.018047391410612 pbc="F F F"
K        0.00000000       0.00000000       0.00000000       0.00000000       0.00000000       0.39443284
K        0.00000000       0.00000000       4.29515152       0.00000000       0.00000000      -0.39443284
2
Properties=species:S:1:pos:R:3:forces:R:3 energy=-0.9955702031668151 pbc="F F F"
K        0.00000000       0.00000000       0.00000000       0.00000000       0.00000000       0.36905572
K        0.00000000       0.00000000       4.35393939       0.00000000       0.00000000      -0.36905572
2
Properties=species:S:1:pos:R:3:forces:R:3 energy=-0.9748150383967114 pbc="F F F"
K        0.00000000       0.00000000       0.00000000       0.00000000       0.00000000       0.33554649
K        0.00000000       0.00000000       4.41272727       0.00000000       0.00000000      -0.33554649
2
Properties=species:S:1:pos:R:3:forces:R:3 energy=-0.9563103619769107 pbc="F F F"
K        0.00000000       0.00000000       0.00000000       0.00000000       0.00000000       0.29224411
K        0.00000000       0.00000000       4.47151515       0.00000000       0.00000000      -0.29224411
2
Properties=species:S:1:pos:R:3:forces:R:3 energy=-0.9406571486613055 pbc="F F F"
K        0.00000000       0.00000000       0.00000000       0.00000000       0.00000000       0.23871781
K        0.00000000       0.00000000       4.53030303       0.00000000       0.00000000      -0.23871781
2
Properties=species:S:1:pos:R:3:forces:R:3 energy=-0.9283644274243658 pbc="F F F"
K        0.00000000       0.00000000       0.00000000       0.00000000       0.00000000       0.17928044
K        0.00000000       0.00000000       4.58909091       0.00000000       0.00000000      -0.17928044
2
Properties=species:S:1:pos:R:3:forces:R:3 energy=-0.9194540210100967 pbc="F F F"
K        0.00000000       0.00000000       0.00000000       0.00000000       0.00000000       0.12643243
K        0.00000000       0.00000000       4.64787879       0.00000000       0.00000000      -0.12643243
2
Properties=species:S:1:pos:R:3:forces:R:3 energy=-0.9130116654420875 pbc="F F F"
K        0.00000000       0.00000000       0.00000000       0.00000000       0.00000000       0.09826320
K        0.00000000       0.00000000       4.70666667       0.00000000       0.00000000      -0.09826320
2
Properties=species:S:1:pos:R:3:forces:R:3 energy=-0.9071551671989694 pbc="F F F"
K        0.00000000       0.00000000       0.00000000       0.00000000       0.00000000       0.10757148
K        0.00000000       0.00000000       4.76545455       0.00000000       0.00000000      -0.10757148
2
Properties=species:S:1:pos:R:3:forces:R:3 energy=-0.8996581152177476 pbc="F F F"
K        0.00000000       0.00000000       0.00000000       0.00000000       0.00000000       0.15244985
K        0.00000000       0.00000000       4.82424242       0.00000000       0.00000000      -0.15244985
2
Properties=species:S:1:pos:R:3:forces:R:3 energy=-0.8888104461175655 pbc="F F F"
K        0.00000000       0.00000000       0.00000000       0.00000000       0.00000000       0.21879631
K        0.00000000       0.00000000       4.88303030       0.00000000       0.00000000      -0.21879631
2
Properties=species:S:1:pos:R:3:forces:R:3 energy=-0.8738348239172036 pbc="F F F"
K        0.00000000       0.00000000       0.00000000       0.00000000       0.00000000       0.29033357
K        0.00000000       0.00000000       4.94181818       0.00000000       0.00000000      -0.29033357
2
Properties=species:S:1:pos:R:3:forces:R:3 energy=-0.854800231392366 pbc="F F F"
K        0.00000000       0.00000000       0.00000000       0.00000000       0.00000000       0.35550532
K        0.00000000       0.00000000       5.00060606       0.00000000       0.00000000      -0.35550532
2
Properties=species:S:1:pos:R:3:forces:R:3 energy=-0.8322774480024968 pbc="F F F"
K        0.00000000       0.00000000       0.00000000       0.00000000       0.00000000       0.40843469
K        0.00000000       0.00000000       5.05939394       0.00000000       0.00000000      -0.40843469
2
Properties=species:S:1:pos:R:3:forces:R:3 energy=-0.8070609441352267 pbc="F F F"
K        0.00000000       0.00000000       0.00000000       0.00000000       0.00000000       0.44698545
K        0.00000000       0.00000000       5.11818182       0.00000000       0.00000000      -0.44698545
2
Properties=species:S:1:pos:R:3:forces:R:3 energy=-0.7800134658400169 pbc="F F F"
K        0.00000000       0.00000000       0.00000000       0.00000000       0.00000000       0.47081089
K        0.00000000       0.00000000       5.17696970       0.00000000       0.00000000      -0.47081089
2
Properties=species:S:1:pos:R:3:forces:R:3 energy=-0.7519896456323432 pbc="F F F"
K        0.00000000       0.00000000       0.00000000       0.00000000       0.00000000       0.48027828
K        0.00000000       0.00000000       5.23575758       0.00000000       0.00000000      -0.48027828
2
Properties=species:S:1:pos:R:3:forces:R:3 energy=-0.7238143426486005 pbc="F F F"
K        0.00000000       0.00000000       0.00000000       0.00000000       0.00000000       0.47609502
K        0.00000000       0.00000000       5.29454545       0.00000000       0.00000000      -0.47609502
2
Properties=species:S:1:pos:R:3:forces:R:3 energy=-0.6962580570646383 pbc="F F F"
K        0.00000000       0.00000000       0.00000000       0.00000000       0.00000000       0.45931947
K        0.00000000       0.00000000       5.35333333       0.00000000       0.00000000      -0.45931947
2
Properties=species:S:1:pos:R:3:forces:R:3 energy=-0.670023524277296 pbc="F F F"
K        0.00000000       0.00000000       0.00000000       0.00000000       0.00000000       0.43144187
K        0.00000000       0.00000000       5.41212121       0.00000000       0.00000000      -0.43144187
2
Properties=species:S:1:pos:R:3:forces:R:3 energy=-0.6457106107310923 pbc="F F F"
K        0.00000000       0.00000000       0.00000000       0.00000000       0.00000000       0.39438304
K        0.00000000       0.00000000       5.47090909       0.00000000       0.00000000      -0.39438304
2
Properties=species:S:1:pos:R:3:forces:R:3 energy=-0.6237872262775127 pbc="F F F"
K        0.00000000       0.00000000       0.00000000       0.00000000       0.00000000       0.35049954
K        0.00000000       0.00000000       5.52969697       0.00000000       0.00000000      -0.35049954
2
Properties=species:S:1:pos:R:3:forces:R:3 energy=-0.6045830361623863 pbc="F F F"
K        0.00000000       0.00000000       0.00000000       0.00000000       0.00000000       0.30239677
K        0.00000000       0.00000000       5.58848485       0.00000000       0.00000000      -0.30239677
2
Properties=species:S:1:pos:R:3:forces:R:3 energy=-0.588260615346697 pbc="F F F"
K        0.00000000       0.00000000       0.00000000       0.00000000       0.00000000       0.25289357
K        0.00000000       0.00000000       5.64727273       0.00000000       0.00000000      -0.25289357
2
Properties=species:S:1:pos:R:3:forces:R:3 energy=-0.5748255048411284 pbc="F F F"
K        0.00000000       0.00000000       0.00000000       0.00000000       0.00000000       0.20474616
K        0.00000000       0.00000000       5.70606061       0.00000000       0.00000000      -0.20474616
2
Properties=species:S:1:pos:R:3:forces:R:3 energy=-0.5641010935845298 pbc="F F F"
K        0.00000000       0.00000000       0.00000000       0.00000000       0.00000000       0.16054223
K        0.00000000       0.00000000       5.76484848       0.00000000       0.00000000      -0.16054223
2
Properties=species:S:1:pos:R:3:forces:R:3 energy=-0.5558189454236386 pbc="F F F"
K        0.00000000       0.00000000       0.00000000       0.00000000       0.00000000       0.12266889
K        0.00000000       0.00000000       5.82363636       0.00000000       0.00000000      -0.12266889
2
Properties=species:S:1:pos:R:3:forces:R:3 energy=-0.5495259695147727 pbc="F F F"
K        0.00000000       0.00000000       0.00000000       0.00000000       0.00000000       0.09313507
K        0.00000000       0.00000000       5.88242424       0.00000000       0.00000000      -0.09313507
2
Properties=species:S:1:pos:R:3:forces:R:3 energy=-0.5446708655339241 pbc="F F F"
K        0.00000000       0.00000000       0.00000000       0.00000000       0.00000000       0.07366939
K        0.00000000       0.00000000       5.94121212       0.00000000       0.00000000      -0.07366939
2
Properties=species:S:1:pos:R:3:forces:R:3 energy=-0.5406347146628909 pbc="F F F"
K        0.00000000       0.00000000       0.00000000       0.00000000       0.00000000       0.06572454
K        0.00000000       0.00000000       6.00000000       0.00000000       0.00000000      -0.06572454
