2
Properties=species:S:1:pos:R:3:forces:R:3 energy=5705.274500821196 pbc="F F F"
Kr       0.00000000       0.00000000       0.00000000       0.00000000       0.00000000  -91979.85156250
Kr       0.00000000       0.00000000       0.18000000       0.00000000       0.00000000   91979.85156250
2
Properties=species:S:1:pos:R:3:forces:R:3 energy=2395.8016004337387 pbc="F F F"
Kr       0.00000000       0.00000000       0.00000000       0.00000000       0.00000000  -32624.64062500
Kr       0.00000000       0.00000000       0.23878788       0.00000000       0.00000000   32624.64062500
2
Properties=species:S:1:pos:R:3:forces:R:3 energy=1129.568324069719 pbc="F F F"
Kr       0.00000000       0.00000000       0.00000000       0.00000000       0.00000000  -13636.00195312
Kr       0.00000000       0.00000000       0.29757576       0.00000000       0.00000000   13636.00195312
2
Properties=species:S:1:pos:R:3:forces:R:3 energy=574.1131849158983 pbc="F F F"
Kr       0.00000000       0.00000000       0.00000000       0.00000000       0.00000000   -6319.82714844
Kr       0.00000000       0.00000000       0.35636364       0.00000000       0.00000000    6319.82714844
2
Properties=species:S:1:pos:R:3:forces:R:3 energy=308.11797618516744 pbc="F F F"
Kr       0.00000000       0.00000000       0.00000000       0.00000000       0.00000000   -3141.20556641
Kr       0.00000000       0.00000000       0.41515152       0.00000000       0.00000000    3141.20556641
2
Properties=species:S:1:pos:R:3:forces:R:3 energy=172.67158033965438 pbc="F F F"
Kr       0.00000000       0.00000000       0.00000000       0.00000000       0.00000000   -1644.70043945
Kr       0.00000000       0.00000000       0.47393939       0.00000000       0.00000000    1644.70043945
2
Properties=species:S:1:pos:R:3:forces:R:3 energy=100.35231311105467 pbc="F F F"
Kr       0.00000000       0.00000000       0.00000000       0.00000000       0.00000000    -898.37750244
Kr       0.00000000       0.00000000       0.53272727       0.00000000       0.00000000     898.37750244
2
Properties=species:S:1:pos:R:3:forces:R:3 energy=60.176745566464916 pbc="F F F"
Kr       0.00000000       0.00000000       0.00000000       0.00000000       0.00000000    -508.99581909
Kr       0.00000000       0.00000000       0.59151515       0.00000000       0.00000000     508.99581909
2
Properties=species:S:1:pos:R:3:forces:R:3 energy=37.06939631009713 pbc="F F F"
Kr       0.00000000       0.00000000       0.00000000       0.00000000       0.00000000    -297.88525391
Kr       0.00000000       0.00000000       0.65030303       0.00000000       0.00000000     297.88525391
2
Properties=species:S:1:pos:R:3:forces:R:3 energy=23.36354973901002 pbc="F F F"
Kr       0.00000000       0.00000000       0.00000000       0.00000000       0.00000000    -179.40629578
Kr       0.00000000       0.00000000       0.70909091       0.00000000       0.00000000     179.40629578
2
Properties=species:S:1:pos:R:3:forces:R:3 energy=15.01096331907988 pbc="F F F"
Kr       0.00000000       0.00000000       0.00000000       0.00000000       0.00000000    -110.79856873
Kr       0.00000000       0.00000000       0.76787879       0.00000000       0.00000000     110.79856873
2
Properties=species:S:1:pos:R:3:forces:R:3 energy=9.798383119741677 pbc="F F F"
Kr       0.00000000       0.00000000       0.00000000       0.00000000       0.00000000     -69.96527100
Kr       0.00000000       0.00000000       0.82666667       0.00000000       0.00000000      69.96527100
2
Properties=species:S:1:pos:R:3:forces:R:3 energy=6.475539781854005 pbc="F F F"
Kr       0.00000000       0.00000000       0.00000000       0.00000000       0.00000000     -45.07678986
Kr       0.00000000       0.00000000       0.88545455       0.00000000       0.00000000      45.07678986
2
Properties=species:S:1:pos:R:3:forces:R:3 energy=4.3165785014517235 pbc="F F F"
Kr       0.00000000       0.00000000       0.00000000       0.00000000       0.00000000     -29.55886078
Kr       0.00000000       0.00000000       0.94424242       0.00000000       0.00000000      29.55886078
2
Properties=species:S:1:pos:R:3:forces:R:3 energy=2.8910429578127825 pbc="F F F"
Kr       0.00000000       0.00000000       0.00000000       0.00000000       0.00000000     -19.65876961
Kr       0.00000000       0.00000000       1.00303030       0.00000000       0.00000000      19.65876961
2
Properties=species:S:1:pos:R:3:forces:R:3 energy=1.9381175253471272 pbc="F F F"
Kr       0.00000000       0.00000000       0.00000000       0.00000000       0.00000000     -13.21050930
Kr       0.00000000       0.00000000       1.06181818       0.00000000       0.00000000      13.21050930
2
Properties=species:S:1:pos:R:3:forces:R:3 energy=1.2950626804146779 pbc="F F F"
Kr       0.00000000       0.00000000       0.00000000       0.00000000       0.00000000      -8.96027851
Kr       0.00000000       0.00000000       1.12060606       0.00000000       0.00000000       8.96027851
2
Properties=species:S:1:pos:R:3:forces:R:3 energy=0.8563853275618949 pbc="F F F"
Kr       0.00000000       0.00000000       0.00000000       0.00000000       0.00000000      -6.15548325
Kr       0.00000000       0.00000000       1.17939394       0.00000000       0.00000000       6.15548325
2
Properties=species:S:1:pos:R:3:forces:R:3 energy=0.5536033048046468 pbc="F F F"
Kr       0.00000000       0.00000000       0.00000000       0.00000000       0.00000000      -4.26332569
Kr       0.00000000       0.00000000       1.23818182       0.00000000       0.00000000       4.26332569
2
Properties=species:S:1:pos:R:3:forces:R:3 energy=0.34365830979198586 pbc="F F F"
Kr       0.00000000       0.00000000       0.00000000       0.00000000       0.00000000      -2.96089840
Kr       0.00000000       0.00000000       1.29696970       0.00000000       0.00000000       2.96089840
2
Properties=species:S:1:pos:R:3:forces:R:3 energy=0.19734996027624113 pbc="F F F"
Kr       0.00000000       0.00000000       0.00000000       0.00000000       0.00000000      -2.07401037
Kr       0.00000000       0.00000000       1.35575758       0.00000000       0.00000000       2.07401037
2
Properties=species:S:1:pos:R:3:forces:R:3 energy=0.09426750017002088 pbc="F F F"
Kr       0.00000000       0.00000000       0.00000000       0.00000000       0.00000000      -1.47070861
Kr       0.00000000       0.00000000       1.41454545       0.00000000       0.00000000       1.47070861
2
Properties=species:S:1:pos:R:3:forces:R:3 energy=0.020885897541381173 pbc="F F F"
Kr       0.00000000       0.00000000       0.00000000       0.00000000       0.00000000      -1.04945242
Kr       0.00000000       0.00000000       1.47333333       0.00000000       0.00000000       1.04945242
2
Properties=species:S:1:pos:R:3:forces:R:3 energy=-0.03134195551356772 pbc="F F F"
Kr       0.00000000       0.00000000       0.00000000       0.00000000       0.00000000      -0.74243116
Kr       0.00000000       0.00000000       1.53212121       0.00000000       0.00000000       0.74243116
2
Properties=species:S:1:pos:R:3:forces:R:3 energy=-0.06787273236137412 pbc="F F F"
Kr       0.00000000       0.00000000       0.00000000       0.00000000       0.00000000      -0.51089197
Kr       0.00000000       0.00000000       1.59090909       0.00000000       0.00000000       0.51089197
2
Properties=species:S:1:pos:R:3:forces:R:3 energy=-0.09249945725459302 pbc="F F F"
Kr       0.00000000       0.00000000       0.00000000       0.00000000       0.00000000      -0.33520249
Kr       0.00000000       0.00000000       1.64969697       0.00000000       0.00000000       0.33520249
2
Properties=species:S:1:pos:R:3:forces:R:3 energy=-0.1081700291069996 pbc="F F F"
Kr       0.00000000       0.00000000       0.00000000       0.00000000       0.00000000      -0.20476180
Kr       0.00000000       0.00000000       1.70848485       0.00000000       0.00000000       0.20476180
2
Properties=species:S:1:pos:R:3:forces:R:3 energy=-0.11729461344208533 pbc="F F F"
Kr       0.00000000       0.00000000       0.00000000       0.00000000       0.00000000      -0.11102913
Kr       0.00000000       0.00000000       1.76727273       0.00000000       0.00000000       0.11102913
2
Properties=species:S:1:pos:R:3:forces:R:3 energy=-0.12175955262703253 pbc="F F F"
Kr       0.00000000       0.00000000       0.00000000       0.00000000       0.00000000      -0.04460983
Kr       0.00000000       0.00000000       1.82606061       0.00000000       0.00000000       0.04460983
2
Properties=species:S:1:pos:R:3:forces:R:3 energy=-0.12289231423581462 pbc="F F F"
Kr       0.00000000       0.00000000       0.00000000       0.00000000       0.00000000       0.00371779
Kr       0.00000000       0.00000000       1.88484848       0.00000000       0.00000000      -0.00371779
2
Properties=species:S:1:pos:R:3:forces:R:3 energy=-0.12154640942203104 pbc="F F F"
Kr       0.00000000       0.00000000       0.00000000       0.00000000       0.00000000       0.04047734
Kr       0.00000000       0.00000000       1.94363636       0.00000000       0.00000000      -0.04047734
2
Properties=species:S:1:pos:R:3:forces:R:3 energy=-0.11830455664254724 pbc="F F F"
Kr       0.00000000       0.00000000       0.00000000       0.00000000       0.00000000       0.06840355
Kr       0.00000000       0.00000000       2.00242424       0.00000000       0.00000000      -0.06840355
2
Properties=species:S:1:pos:R:3:forces:R:3 energy=-0.11367273930273536 pbc="F F F"
Kr       0.00000000       0.00000000       0.00000000       0.00000000       0.00000000       0.08770733
Kr       0.00000000       0.00000000       2.06121212       0.00000000       0.00000000      -0.08770733
2
Properties=species:S:1:pos:R:3:forces:R:3 energy=-0.10816312567479672 pbc="F F F"
Kr       0.00000000       0.00000000       0.00000000       0.00000000       0.00000000       0.09833678
Kr       0.00000000       0.00000000       2.12000000       0.00000000       0.00000000      -0.09833678
2
Properties=species:S:1:pos:R:3:forces:R:3 energy=-0.10226043996778278 pbc="F F F"
Kr       0.00000000       0.00000000       0.00000000       0.00000000       0.00000000       0.10136388
Kr       0.00000000       0.00000000       2.17878788       0.00000000       0.00000000      -0.10136388
2
Properties=species:S:1:pos:R:3:forces:R:3 energy=-0.0963527879695111 pbc="F F F"
Kr       0.00000000       0.00000000       0.00000000       0.00000000       0.00000000       0.09890170
Kr       0.00000000       0.00000000       2.23757576       0.00000000       0.00000000      -0.09890170
2
Properties=species:S:1:pos:R:3:forces:R:3 energy=-0.09069473642887223 pbc="F F F"
Kr       0.00000000       0.00000000       0.00000000       0.00000000       0.00000000       0.09321509
Kr       0.00000000       0.00000000       2.29636364       0.00000000       0.00000000      -0.09321509
2
Properties=species:S:1:pos:R:3:forces:R:3 energy=-0.08542304516025467 pbc="F F F"
Kr       0.00000000       0.00000000       0.00000000       0.00000000       0.00000000       0.08597028
Kr       0.00000000       0.00000000       2.35515152       0.00000000       0.00000000      -0.08597028
2
Properties=species:S:1:pos:R:3:forces:R:3 energy=-0.08060070015185955 pbc="F F F"
Kr       0.00000000       0.00000000       0.00000000       0.00000000       0.00000000       0.07798082
Kr       0.00000000       0.00000000       2.41393939       0.00000000       0.00000000      -0.07798082
2
Properties=species:S:1:pos:R:3:forces:R:3 energy=-0.07626894507578058 pbc="F F F"
Kr       0.00000000       0.00000000       0.00000000       0.00000000       0.00000000       0.06923385
Kr       0.00000000       0.00000000       2.47272727       0.00000000       0.00000000      -0.06923385
2
Properties=species:S:1:pos:R:3:forces:R:3 energy=-0.07248373307658776 pbc="F F F"
Kr       0.00000000       0.00000000       0.00000000       0.00000000       0.00000000       0.05929981
Kr       0.00000000       0.00000000       2.53151515       0.00000000       0.00000000      -0.05929981
2
Properties=species:S:1:pos:R:3:forces:R:3 energy=-0.06932934493724084 pbc="F F F"
Kr       0.00000000       0.00000000       0.00000000       0.00000000       0.00000000       0.04771355
Kr       0.00000000       0.00000000       2.59030303       0.00000000       0.00000000      -0.04771355
2
Properties=species:S:1:pos:R:3:forces:R:3 energy=-0.06690856774495281 pbc="F F F"
Kr       0.00000000       0.00000000       0.00000000       0.00000000       0.00000000       0.03437401
Kr       0.00000000       0.00000000       2.64909091       0.00000000       0.00000000      -0.03437401
2
Properties=species:S:1:pos:R:3:forces:R:3 energy=-0.06531177330930818 pbc="F F F"
Kr       0.00000000       0.00000000       0.00000000       0.00000000       0.00000000       0.01983375
Kr       0.00000000       0.00000000       2.70787879       0.00000000       0.00000000      -0.01983375
2
Properties=species:S:1:pos:R:3:forces:R:3 energy=-0.0645770365227586 pbc="F F F"
Kr       0.00000000       0.00000000       0.00000000       0.00000000       0.00000000       0.00528268
Kr       0.00000000       0.00000000       2.76666667       0.00000000       0.00000000      -0.00528268
2
Properties=species:S:1:pos:R:3:forces:R:3 energy=-0.0646620166924633 pbc="F F F"
Kr       0.00000000       0.00000000       0.00000000       0.00000000       0.00000000      -0.00781409
Kr       0.00000000       0.00000000       2.82545455       0.00000000       0.00000000       0.00781409
2
Properties=species:S:1:pos:R:3:forces:R:3 energy=-0.06544260845424077 pbc="F F F"
Kr       0.00000000       0.00000000       0.00000000       0.00000000       0.00000000      -0.01821858
Kr       0.00000000       0.00000000       2.88424242       0.00000000       0.00000000       0.01821858
2
Properties=species:S:1:pos:R:3:forces:R:3 energy=-0.06673770154731011 pbc="F F F"
Kr       0.00000000       0.00000000       0.00000000       0.00000000       0.00000000      -0.02525781
Kr       0.00000000       0.00000000       2.94303030       0.00000000       0.00000000       0.02525781
2
Properties=species:S:1:pos:R:3:forces:R:3 energy=-0.06834491532075937 pbc="F F F"
Kr       0.00000000       0.00000000       0.00000000       0.00000000       0.00000000      -0.02887268
Kr       0.00000000       0.00000000       3.00181818       0.00000000       0.00000000       0.02887268
2
Properties=species:S:1:pos:R:3:forces:R:3 energy=-0.07007309520178184 pbc="F F F"
Kr       0.00000000       0.00000000       0.00000000       0.00000000       0.00000000      -0.02946738
Kr       0.00000000       0.00000000       3.06060606       0.00000000       0.00000000       0.02946738
2
Properties=species:S:1:pos:R:3:forces:R:3 energy=-0.07176348093659617 pbc="F F F"
Kr       0.00000000       0.00000000       0.00000000       0.00000000       0.00000000      -0.02771451
Kr       0.00000000       0.00000000       3.11939394       0.00000000       0.00000000       0.02771451
2
Properties=species:S:1:pos:R:3:forces:R:3 energy=-0.07330098046033359 pbc="F F F"
Kr       0.00000000       0.00000000       0.00000000       0.00000000       0.00000000      -0.02439852
Kr       0.00000000       0.00000000       3.17818182       0.00000000       0.00000000       0.02439852
2
Properties=species:S:1:pos:R:3:forces:R:3 energy=-0.07461692309006321 pbc="F F F"
Kr       0.00000000       0.00000000       0.00000000       0.00000000       0.00000000      -0.02030200
Kr       0.00000000       0.00000000       3.23696970       0.00000000       0.00000000       0.02030200
2
Properties=species:S:1:pos:R:3:forces:R:3 energy=-0.07568643377910757 pbc="F F F"
Kr       0.00000000       0.00000000       0.00000000       0.00000000       0.00000000      -0.01611868
Kr       0.00000000       0.00000000       3.29575758       0.00000000       0.00000000       0.01611868
2
Properties=species:S:1:pos:R:3:forces:R:3 energy=-0.07652102911582843 pbc="F F F"
Kr       0.00000000       0.00000000       0.00000000       0.00000000       0.00000000      -0.01238522
Kr       0.00000000       0.00000000       3.35454545       0.00000000       0.00000000       0.01238522
2
Properties=species:S:1:pos:R:3:forces:R:3 energy=-0.07715812318085602 pbc="F F F"
Kr       0.00000000       0.00000000       0.00000000       0.00000000       0.00000000      -0.00943594
Kr       0.00000000       0.00000000       3.41333333       0.00000000       0.00000000       0.00943594
2
Properties=species:S:1:pos:R:3:forces:R:3 energy=-0.07764829658424258 pbc="F F F"
Kr       0.00000000       0.00000000       0.00000000       0.00000000       0.00000000      -0.00738837
Kr       0.00000000       0.00000000       3.47212121       0.00000000       0.00000000       0.00738837
2
Properties=species:S:1:pos:R:3:forces:R:3 energy=-0.07804306267410771 pbc="F F F"
Kr       0.00000000       0.00000000       0.00000000       0.00000000       0.00000000      -0.00616505
Kr       0.00000000       0.00000000       3.53090909       0.00000000       0.00000000       0.00616505
2
Properties=species:S:1:pos:R:3:forces:R:3 energy=-0.07838501572771003 pbc="F F F"
Kr       0.00000000       0.00000000       0.00000000       0.00000000       0.00000000      -0.00554610
Kr       0.00000000       0.00000000       3.58969697       0.00000000       0.00000000       0.00554610
2
Properties=species:S:1:pos:R:3:forces:R:3 energy=-0.07870130553476738 pbc="F F F"
Kr       0.00000000       0.00000000       0.00000000       0.00000000       0.00000000      -0.00524125
Kr       0.00000000       0.00000000       3.64848485       0.00000000       0.00000000       0.00524125
2
Properties=species:S:1:pos:R:3:forces:R:3 energy=-0.07900172926135322 pbc="F F F"
Kr       0.00000000       0.00000000       0.00000000       0.00000000       0.00000000      -0.00496218
Kr       0.00000000       0.00000000       3.70727273       0.00000000       0.00000000       0.00496218
2
Properties=species:S:1:pos:R:3:forces:R:3 energy=-0.07928070890657579 pbc="F F F"
Kr       0.00000000       0.00000000       0.00000000       0.00000000       0.00000000      -0.00447997
Kr       0.00000000       0.00000000       3.76606061       0.00000000       0.00000000       0.00447997
2
Properties=species:S:1:pos:R:3:forces:R:3 energy=-0.07952171941629749 pbc="F F F"
Kr       0.00000000       0.00000000       0.00000000       0.00000000       0.00000000      -0.00365655
Kr       0.00000000       0.00000000       3.82484848       0.00000000       0.00000000       0.00365655
2
Properties=species:S:1:pos:R:3:forces:R:3 energy=-0.07970304625651609 pbc="F F F"
Kr       0.00000000       0.00000000       0.00000000       0.00000000       0.00000000      -0.00244898
Kr       0.00000000       0.00000000       3.88363636       0.00000000       0.00000000       0.00244898
2
Properties=species:S:1:pos:R:3:forces:R:3 energy=-0.0798027970172446 pbc="F F F"
Kr       0.00000000       0.00000000       0.00000000       0.00000000       0.00000000      -0.00089278
Kr       0.00000000       0.00000000       3.94242424       0.00000000       0.00000000       0.00089278
2
Properties=species:S:1:pos:R:3:forces:R:3 energy=-0.07980284438903569 pbc="F F F"
Kr       0.00000000       0.00000000       0.00000000       0.00000000       0.00000000       0.00092528
Kr       0.00000000       0.00000000       4.00121212       0.00000000       0.00000000      -0.00092528
2
Properties=species:S:1:pos:R:3:forces:R:3 energy=-0.07969100672322146 pbc="F F F"
Kr       0.00000000       0.00000000       0.00000000       0.00000000       0.00000000       0.00289596
Kr       0.00000000       0.00000000       4.06000000       0.00000000       0.00000000      -0.00289596
2
Properties=species:S:1:pos:R:3:forces:R:3 energy=-0.07946153546096657 pbc="F F F"
Kr       0.00000000       0.00000000       0.00000000       0.00000000       0.00000000       0.00490942
Kr       0.00000000       0.00000000       4.11878788       0.00000000       0.00000000      -0.00490942
2
Properties=species:S:1:pos:R:3:forces:R:3 energy=-0.07911487425481388 pbc="F F F"
Kr       0.00000000       0.00000000       0.00000000       0.00000000       0.00000000       0.00686786
Kr       0.00000000       0.00000000       4.17757576       0.00000000       0.00000000      -0.00686786
2
Properties=species:S:1:pos:R:3:forces:R:3 energy=-0.07865677191161152 pbc="F F F"
Kr       0.00000000       0.00000000       0.00000000       0.00000000       0.00000000       0.00868759
Kr       0.00000000       0.00000000       4.23636364       0.00000000       0.00000000      -0.00868759
2
Properties=species:S:1:pos:R:3:forces:R:3 energy=-0.07809759697009068 pbc="F F F"
Kr       0.00000000       0.00000000       0.00000000       0.00000000       0.00000000       0.01029393
Kr       0.00000000       0.00000000       4.29515152       0.00000000       0.00000000      -0.01029393
2
Properties=species:S:1:pos:R:3:forces:R:3 energy=-0.07745208467311328 pbc="F F F"
Kr       0.00000000       0.00000000       0.00000000       0.00000000       0.00000000       0.01161257
Kr       0.00000000       0.00000000       4.35393939       0.00000000       0.00000000      -0.01161257
2
Properties=species:S:1:pos:R:3:forces:R:3 energy=-0.07673945195618861 pbc="F F F"
Kr       0.00000000       0.00000000       0.00000000       0.00000000       0.00000000       0.01256398
Kr       0.00000000       0.00000000       4.41272727       0.00000000       0.00000000      -0.01256398
2
Properties=species:S:1:pos:R:3:forces:R:3 energy=-0.07598369954547617 pbc="F F F"
Kr       0.00000000       0.00000000       0.00000000       0.00000000       0.00000000       0.01306500
Kr       0.00000000       0.00000000       4.47151515       0.00000000       0.00000000      -0.01306500
2
Properties=species:S:1:pos:R:3:forces:R:3 energy=-0.07521359749460646 pbc="F F F"
Kr       0.00000000       0.00000000       0.00000000       0.00000000       0.00000000       0.01304185
Kr       0.00000000       0.00000000       4.53030303       0.00000000       0.00000000      -0.01304185
2
Properties=species:S:1:pos:R:3:forces:R:3 energy=-0.07446143143425488 pbc="F F F"
Kr       0.00000000       0.00000000       0.00000000       0.00000000       0.00000000       0.01245217
Kr       0.00000000       0.00000000       4.58909091       0.00000000       0.00000000      -0.01245217
2
Properties=species:S:1:pos:R:3:forces:R:3 energy=-0.07376042018051725 pbc="F F F"
Kr       0.00000000       0.00000000       0.00000000       0.00000000       0.00000000       0.01130940
Kr       0.00000000       0.00000000       4.64787879       0.00000000       0.00000000      -0.01130940
2
Properties=species:S:1:pos:R:3:forces:R:3 energy=-0.0731409442722179 pbc="F F F"
Kr       0.00000000       0.00000000       0.00000000       0.00000000       0.00000000       0.00969860
Kr       0.00000000       0.00000000       4.70666667       0.00000000       0.00000000      -0.00969860
2
Properties=species:S:1:pos:R:3:forces:R:3 energy=-0.07262626678479375 pbc="F F F"
Kr       0.00000000       0.00000000       0.00000000       0.00000000       0.00000000       0.00777498
Kr       0.00000000       0.00000000       4.76545455       0.00000000       0.00000000      -0.00777498
2
Properties=species:S:1:pos:R:3:forces:R:3 energy=-0.07222895921949485 pbc="F F F"
Kr       0.00000000       0.00000000       0.00000000       0.00000000       0.00000000       0.00574167
Kr       0.00000000       0.00000000       4.82424242       0.00000000       0.00000000      -0.00574167
2
Properties=species:S:1:pos:R:3:forces:R:3 energy=-0.07194906117898417 pbc="F F F"
Kr       0.00000000       0.00000000       0.00000000       0.00000000       0.00000000       0.00381481
Kr       0.00000000       0.00000000       4.88303030       0.00000000       0.00000000      -0.00381481
2
Properties=species:S:1:pos:R:3:forces:R:3 energy=-0.07177457660740653 pbc="F F F"
Kr       0.00000000       0.00000000       0.00000000       0.00000000       0.00000000       0.00218480
Kr       0.00000000       0.00000000       4.94181818       0.00000000       0.00000000      -0.00218480
2
Properties=species:S:1:pos:R:3:forces:R:3 energy=-0.0716836639071105 pbc="F F F"
Kr       0.00000000       0.00000000       0.00000000       0.00000000       0.00000000       0.00098875
Kr       0.00000000       0.00000000       5.00060606       0.00000000       0.00000000      -0.00098875
2
Properties=species:S:1:pos:R:3:forces:R:3 energy=-0.07164845733654344 pbc="F F F"
Kr       0.00000000       0.00000000       0.00000000       0.00000000       0.00000000       0.00029463
Kr       0.00000000       0.00000000       5.05939394       0.00000000       0.00000000      -0.00029463
2
Properties=species:S:1:pos:R:3:forces:R:3 energy=-0.07163919067212443 pbc="F F F"
Kr       0.00000000       0.00000000       0.00000000       0.00000000       0.00000000       0.00010021
Kr       0.00000000       0.00000000       5.11818182       0.00000000       0.00000000      -0.00010021
2
Properties=species:S:1:pos:R:3:forces:R:3 energy=-0.07162807345905077 pbc="F F F"
Kr       0.00000000       0.00000000       0.00000000       0.00000000       0.00000000       0.00034233
Kr       0.00000000       0.00000000       5.17696970       0.00000000       0.00000000      -0.00034233
2
Properties=species:S:1:pos:R:3:forces:R:3 energy=-0.07159247960980977 pbc="F F F"
Kr       0.00000000       0.00000000       0.00000000       0.00000000       0.00000000       0.00091176
Kr       0.00000000       0.00000000       5.23575758       0.00000000       0.00000000      -0.00091176
2
Properties=species:S:1:pos:R:3:forces:R:3 energy=-0.07151709839209862 pbc="F F F"
Kr       0.00000000       0.00000000       0.00000000       0.00000000       0.00000000       0.00167233
Kr       0.00000000       0.00000000       5.29454545       0.00000000       0.00000000      -0.00167233
2
Properties=species:S:1:pos:R:3:forces:R:3 energy=-0.07139491178880987 pbc="F F F"
Kr       0.00000000       0.00000000       0.00000000       0.00000000       0.00000000       0.00248177
Kr       0.00000000       0.00000000       5.35333333       0.00000000       0.00000000      -0.00248177
2
Properties=species:S:1:pos:R:3:forces:R:3 energy=-0.07122690939607995 pbc="F F F"
Kr       0.00000000       0.00000000       0.00000000       0.00000000       0.00000000       0.00321139
Kr       0.00000000       0.00000000       5.41212121       0.00000000       0.00000000      -0.00321139
2
Properties=species:S:1:pos:R:3:forces:R:3 energy=-0.07102084083152055 pbc="F F F"
Kr       0.00000000       0.00000000       0.00000000       0.00000000       0.00000000       0.00376371
Kr       0.00000000       0.00000000       5.47090909       0.00000000       0.00000000      -0.00376371
2
Properties=species:S:1:pos:R:3:forces:R:3 energy=-0.07078897152554793 pbc="F F F"
Kr       0.00000000       0.00000000       0.00000000       0.00000000       0.00000000       0.00408362
Kr       0.00000000       0.00000000       5.52969697       0.00000000       0.00000000      -0.00408362
2
Properties=species:S:1:pos:R:3:forces:R:3 energy=-0.07054549875583786 pbc="F F F"
Kr       0.00000000       0.00000000       0.00000000       0.00000000       0.00000000       0.00416038
Kr       0.00000000       0.00000000       5.58848485       0.00000000       0.00000000      -0.00416038
2
Properties=species:S:1:pos:R:3:forces:R:3 energy=-0.07030402426459748 pbc="F F F"
Kr       0.00000000       0.00000000       0.00000000       0.00000000       0.00000000       0.00402293
Kr       0.00000000       0.00000000       5.64727273       0.00000000       0.00000000      -0.00402293
2
Properties=species:S:1:pos:R:3:forces:R:3 energy=-0.07007561168891303 pbc="F F F"
Kr       0.00000000       0.00000000       0.00000000       0.00000000       0.00000000       0.00372804
Kr       0.00000000       0.00000000       5.70606061       0.00000000       0.00000000      -0.00372804
2
Properties=species:S:1:pos:R:3:forces:R:3 energy=-0.06986735335042805 pbc="F F F"
Kr       0.00000000       0.00000000       0.00000000       0.00000000       0.00000000       0.00334543
Kr       0.00000000       0.00000000       5.76484848       0.00000000       0.00000000      -0.00334543
2
Properties=species:S:1:pos:R:3:forces:R:3 energy=-0.06968261270669704 pbc="F F F"
Kr       0.00000000       0.00000000       0.00000000       0.00000000       0.00000000       0.00294302
Kr       0.00000000       0.00000000       5.82363636       0.00000000       0.00000000      -0.00294302
2
Properties=species:S:1:pos:R:3:forces:R:3 energy=-0.0695206755388175 pbc="F F F"
Kr       0.00000000       0.00000000       0.00000000       0.00000000       0.00000000       0.00257744
Kr       0.00000000       0.00000000       5.88242424       0.00000000       0.00000000      -0.00257744
2
Properties=species:S:1:pos:R:3:forces:R:3 energy=-0.06937807432088139 pbc="F F F"
Kr       0.00000000       0.00000000       0.00000000       0.00000000       0.00000000       0.00228755
Kr       0.00000000       0.00000000       5.94121212       0.00000000       0.00000000      -0.00228755
2
Properties=species:S:1:pos:R:3:forces:R:3 energy=-0.06924976731860122 pbc="F F F"
Kr       0.00000000       0.00000000       0.00000000       0.00000000       0.00000000       0.00209550
Kr       0.00000000       0.00000000       6.00000000       0.00000000       0.00000000      -0.00209550
