2
Properties=species:S:1:pos:R:3:forces:R:3 energy=10899.915312756257 pbc="F F F"
La       0.00000000       0.00000000       0.00000000       0.00000000       0.00000000 -185184.79687500
La       0.00000000       0.00000000       0.18000000       0.00000000       0.00000000  185184.79687500
2
Properties=species:S:1:pos:R:3:forces:R:3 energy=4358.524199475006 pbc="F F F"
La       0.00000000       0.00000000       0.00000000       0.00000000       0.00000000  -62861.05468750
La       0.00000000       0.00000000       0.23878788       0.00000000       0.00000000   62861.05468750
2
Properties=species:S:1:pos:R:3:forces:R:3 energy=1963.8624563109436 pbc="F F F"
La       0.00000000       0.00000000       0.00000000       0.00000000       0.00000000  -25136.31445312
La       0.00000000       0.00000000       0.29757576       0.00000000       0.00000000   25136.31445312
2
Properties=species:S:1:pos:R:3:forces:R:3 energy=960.1798391234435 pbc="F F F"
La       0.00000000       0.00000000       0.00000000       0.00000000       0.00000000  -11125.50878906
La       0.00000000       0.00000000       0.35636364       0.00000000       0.00000000   11125.50878906
2
Properties=species:S:1:pos:R:3:forces:R:3 energy=501.1959524110291 pbc="F F F"
La       0.00000000       0.00000000       0.00000000       0.00000000       0.00000000   -5286.92480469
La       0.00000000       0.00000000       0.41515152       0.00000000       0.00000000    5286.92480469
2
Properties=species:S:1:pos:R:3:forces:R:3 energy=277.4057607606385 pbc="F F F"
La       0.00000000       0.00000000       0.00000000       0.00000000       0.00000000   -2658.24926758
La       0.00000000       0.00000000       0.47393939       0.00000000       0.00000000    2658.24926758
2
Properties=species:S:1:pos:R:3:forces:R:3 energy=162.3423605047551 pbc="F F F"
La       0.00000000       0.00000000       0.00000000       0.00000000       0.00000000   -1404.08740234
La       0.00000000       0.00000000       0.53272727       0.00000000       0.00000000    1404.08740234
2
Properties=species:S:1:pos:R:3:forces:R:3 energy=100.28936674301232 pbc="F F F"
La       0.00000000       0.00000000       0.00000000       0.00000000       0.00000000    -776.50488281
La       0.00000000       0.00000000       0.59151515       0.00000000       0.00000000     776.50488281
2
Properties=species:S:1:pos:R:3:forces:R:3 energy=65.2613745134841 pbc="F F F"
La       0.00000000       0.00000000       0.00000000       0.00000000       0.00000000    -449.40551758
La       0.00000000       0.00000000       0.65030303       0.00000000       0.00000000     449.40551758
2
Properties=species:S:1:pos:R:3:forces:R:3 energy=44.54434115893185 pbc="F F F"
La       0.00000000       0.00000000       0.00000000       0.00000000       0.00000000    -272.98446655
La       0.00000000       0.00000000       0.70909091       0.00000000       0.00000000     272.98446655
2
Properties=species:S:1:pos:R:3:forces:R:3 energy=31.649296889170422 pbc="F F F"
La       0.00000000       0.00000000       0.00000000       0.00000000       0.00000000    -174.99906921
La       0.00000000       0.00000000       0.76787879       0.00000000       0.00000000     174.99906921
2
Properties=species:S:1:pos:R:3:forces:R:3 energy=23.171553816394443 pbc="F F F"
La       0.00000000       0.00000000       0.00000000       0.00000000       0.00000000    -118.15955353
La       0.00000000       0.00000000       0.82666667       0.00000000       0.00000000     118.15955353
2
Properties=species:S:1:pos:R:3:forces:R:3 energy=17.382300701908402 pbc="F F F"
La       0.00000000       0.00000000       0.00000000       0.00000000       0.00000000     -80.67801666
La       0.00000000       0.00000000       0.88545455       0.00000000       0.00000000      80.67801666
2
Properties=species:S:1:pos:R:3:forces:R:3 energy=13.556347370382323 pbc="F F F"
La       0.00000000       0.00000000       0.00000000       0.00000000       0.00000000     -50.29890442
La       0.00000000       0.00000000       0.94424242       0.00000000       0.00000000      50.29890442
2
Properties=species:S:1:pos:R:3:forces:R:3 energy=11.317328191873331 pbc="F F F"
La       0.00000000       0.00000000       0.00000000       0.00000000       0.00000000     -27.82468033
La       0.00000000       0.00000000       1.00303030       0.00000000       0.00000000      27.82468033
2
Properties=species:S:1:pos:R:3:forces:R:3 energy=10.024868048059258 pbc="F F F"
La       0.00000000       0.00000000       0.00000000       0.00000000       0.00000000     -18.14405441
La       0.00000000       0.00000000       1.06181818       0.00000000       0.00000000      18.14405441
2
Properties=species:S:1:pos:R:3:forces:R:3 energy=9.018613291027895 pbc="F F F"
La       0.00000000       0.00000000       0.00000000       0.00000000       0.00000000     -16.92790985
La       0.00000000       0.00000000       1.12060606       0.00000000       0.00000000      16.92790985
2
Properties=species:S:1:pos:R:3:forces:R:3 energy=7.980130178189498 pbc="F F F"
La       0.00000000       0.00000000       0.00000000       0.00000000       0.00000000     -18.60698700
La       0.00000000       0.00000000       1.17939394       0.00000000       0.00000000      18.60698700
2
Properties=species:S:1:pos:R:3:forces:R:3 energy=6.827322170867256 pbc="F F F"
La       0.00000000       0.00000000       0.00000000       0.00000000       0.00000000     -20.48022079
La       0.00000000       0.00000000       1.23818182       0.00000000       0.00000000      20.48022079
2
Properties=species:S:1:pos:R:3:forces:R:3 energy=5.606325203144178 pbc="F F F"
La       0.00000000       0.00000000       0.00000000       0.00000000       0.00000000     -20.62624741
La       0.00000000       0.00000000       1.29696970       0.00000000       0.00000000      20.62624741
2
Properties=species:S:1:pos:R:3:forces:R:3 energy=4.4597012255707495 pbc="F F F"
La       0.00000000       0.00000000       0.00000000       0.00000000       0.00000000     -17.92591858
La       0.00000000       0.00000000       1.35575758       0.00000000       0.00000000      17.92591858
2
Properties=species:S:1:pos:R:3:forces:R:3 energy=3.5329216232895235 pbc="F F F"
La       0.00000000       0.00000000       0.00000000       0.00000000       0.00000000     -13.53550053
La       0.00000000       0.00000000       1.41454545       0.00000000       0.00000000      13.53550053
2
Properties=species:S:1:pos:R:3:forces:R:3 energy=2.8495376726478847 pbc="F F F"
La       0.00000000       0.00000000       0.00000000       0.00000000       0.00000000     -10.05454731
La       0.00000000       0.00000000       1.47333333       0.00000000       0.00000000      10.05454731
2
Properties=species:S:1:pos:R:3:forces:R:3 energy=2.3009247275994205 pbc="F F F"
La       0.00000000       0.00000000       0.00000000       0.00000000       0.00000000      -9.05094433
La       0.00000000       0.00000000       1.53212121       0.00000000       0.00000000       9.05094433
2
Properties=species:S:1:pos:R:3:forces:R:3 energy=1.740861715954479 pbc="F F F"
La       0.00000000       0.00000000       0.00000000       0.00000000       0.00000000     -10.27997398
La       0.00000000       0.00000000       1.59090909       0.00000000       0.00000000      10.27997398
2
Properties=species:S:1:pos:R:3:forces:R:3 energy=1.0754759281725548 pbc="F F F"
La       0.00000000       0.00000000       0.00000000       0.00000000       0.00000000     -12.35914707
La       0.00000000       0.00000000       1.64969697       0.00000000       0.00000000      12.35914707
2
Properties=species:S:1:pos:R:3:forces:R:3 energy=0.3022455081562876 pbc="F F F"
La       0.00000000       0.00000000       0.00000000       0.00000000       0.00000000     -13.71848202
La       0.00000000       0.00000000       1.70848485       0.00000000       0.00000000      13.71848202
2
Properties=species:S:1:pos:R:3:forces:R:3 energy=-0.5034608043767521 pbc="F F F"
La       0.00000000       0.00000000       0.00000000       0.00000000       0.00000000     -13.37497807
La       0.00000000       0.00000000       1.76727273       0.00000000       0.00000000      13.37497807
2
Properties=species:S:1:pos:R:3:forces:R:3 energy=-1.2356283411930136 pbc="F F F"
La       0.00000000       0.00000000       0.00000000       0.00000000       0.00000000     -11.29012966
La       0.00000000       0.00000000       1.82606061       0.00000000       0.00000000      11.29012966
2
Properties=species:S:1:pos:R:3:forces:R:3 energy=-1.8120423202117377 pbc="F F F"
La       0.00000000       0.00000000       0.00000000       0.00000000       0.00000000      -8.25297928
La       0.00000000       0.00000000       1.88484848       0.00000000       0.00000000       8.25297928
2
Properties=species:S:1:pos:R:3:forces:R:3 energy=-2.2088870126559064 pbc="F F F"
La       0.00000000       0.00000000       0.00000000       0.00000000       0.00000000      -5.35353231
La       0.00000000       0.00000000       1.94363636       0.00000000       0.00000000       5.35353231
2
Properties=species:S:1:pos:R:3:forces:R:3 energy=-2.4606052556124522 pbc="F F F"
La       0.00000000       0.00000000       0.00000000       0.00000000       0.00000000      -3.41045737
La       0.00000000       0.00000000       2.00242424       0.00000000       0.00000000       3.41045737
2
Properties=species:S:1:pos:R:3:forces:R:3 energy=-2.6341565038767185 pbc="F F F"
La       0.00000000       0.00000000       0.00000000       0.00000000       0.00000000      -2.68440986
La       0.00000000       0.00000000       2.06121212       0.00000000       0.00000000       2.68440986
2
Properties=species:S:1:pos:R:3:forces:R:3 energy=-2.793316370538726 pbc="F F F"
La       0.00000000       0.00000000       0.00000000       0.00000000       0.00000000      -2.81890202
La       0.00000000       0.00000000       2.12000000       0.00000000       0.00000000       2.81890202
2
Properties=species:S:1:pos:R:3:forces:R:3 energy=-2.9694656690347654 pbc="F F F"
La       0.00000000       0.00000000       0.00000000       0.00000000       0.00000000      -3.16248202
La       0.00000000       0.00000000       2.17878788       0.00000000       0.00000000       3.16248202
2
Properties=species:S:1:pos:R:3:forces:R:3 energy=-3.1612364589280015 pbc="F F F"
La       0.00000000       0.00000000       0.00000000       0.00000000       0.00000000      -3.31919837
La       0.00000000       0.00000000       2.23757576       0.00000000       0.00000000       3.31919837
2
Properties=species:S:1:pos:R:3:forces:R:3 energy=-3.355003491553725 pbc="F F F"
La       0.00000000       0.00000000       0.00000000       0.00000000       0.00000000      -3.23857498
La       0.00000000       0.00000000       2.29636364       0.00000000       0.00000000       3.23857498
2
Properties=species:S:1:pos:R:3:forces:R:3 energy=-3.5387784328551546 pbc="F F F"
La       0.00000000       0.00000000       0.00000000       0.00000000       0.00000000      -2.99222422
La       0.00000000       0.00000000       2.35515152       0.00000000       0.00000000       2.99222422
2
Properties=species:S:1:pos:R:3:forces:R:3 energy=-3.70489844400762 pbc="F F F"
La       0.00000000       0.00000000       0.00000000       0.00000000       0.00000000      -2.64705801
La       0.00000000       0.00000000       2.41393939       0.00000000       0.00000000       2.64705801
2
Properties=species:S:1:pos:R:3:forces:R:3 energy=-3.848922890276334 pbc="F F F"
La       0.00000000       0.00000000       0.00000000       0.00000000       0.00000000      -2.24597955
La       0.00000000       0.00000000       2.47272727       0.00000000       0.00000000       2.24597955
2
Properties=species:S:1:pos:R:3:forces:R:3 energy=-3.9683886543134053 pbc="F F F"
La       0.00000000       0.00000000       0.00000000       0.00000000       0.00000000      -1.81485653
La       0.00000000       0.00000000       2.53151515       0.00000000       0.00000000       1.81485653
2
Properties=species:S:1:pos:R:3:forces:R:3 energy=-4.06201652140755 pbc="F F F"
La       0.00000000       0.00000000       0.00000000       0.00000000       0.00000000      -1.36876905
La       0.00000000       0.00000000       2.59030303       0.00000000       0.00000000       1.36876905
2
Properties=species:S:1:pos:R:3:forces:R:3 energy=-4.129195671830657 pbc="F F F"
La       0.00000000       0.00000000       0.00000000       0.00000000       0.00000000      -0.91607541
La       0.00000000       0.00000000       2.64909091       0.00000000       0.00000000       0.91607541
2
Properties=species:S:1:pos:R:3:forces:R:3 energy=-4.169707495424693 pbc="F F F"
La       0.00000000       0.00000000       0.00000000       0.00000000       0.00000000      -0.46250314
La       0.00000000       0.00000000       2.70787879       0.00000000       0.00000000       0.46250314
2
Properties=species:S:1:pos:R:3:forces:R:3 energy=-4.183693519135115 pbc="F F F"
La       0.00000000       0.00000000       0.00000000       0.00000000       0.00000000      -0.01514159
La       0.00000000       0.00000000       2.76666667       0.00000000       0.00000000       0.01514159
2
Properties=species:S:1:pos:R:3:forces:R:3 energy=-4.17181829992146 pbc="F F F"
La       0.00000000       0.00000000       0.00000000       0.00000000       0.00000000       0.41526204
La       0.00000000       0.00000000       2.82545455       0.00000000       0.00000000      -0.41526204
2
Properties=species:S:1:pos:R:3:forces:R:3 energy=-4.13546925587666 pbc="F F F"
La       0.00000000       0.00000000       0.00000000       0.00000000       0.00000000       0.81501770
La       0.00000000       0.00000000       2.88424242       0.00000000       0.00000000      -0.81501770
2
Properties=species:S:1:pos:R:3:forces:R:3 energy=-4.076858914455416 pbc="F F F"
La       0.00000000       0.00000000       0.00000000       0.00000000       0.00000000       1.17061186
La       0.00000000       0.00000000       2.94303030       0.00000000       0.00000000      -1.17061186
2
Properties=species:S:1:pos:R:3:forces:R:3 energy=-3.998899104164239 pbc="F F F"
La       0.00000000       0.00000000       0.00000000       0.00000000       0.00000000       1.47204530
La       0.00000000       0.00000000       3.00181818       0.00000000       0.00000000      -1.47204530
2
Properties=species:S:1:pos:R:3:forces:R:3 energy=-3.9049422037190054 pbc="F F F"
La       0.00000000       0.00000000       0.00000000       0.00000000       0.00000000       1.71443045
La       0.00000000       0.00000000       3.06060606       0.00000000       0.00000000      -1.71443045
2
Properties=species:S:1:pos:R:3:forces:R:3 energy=-3.798490511141167 pbc="F F F"
La       0.00000000       0.00000000       0.00000000       0.00000000       0.00000000       1.89740014
La       0.00000000       0.00000000       3.11939394       0.00000000       0.00000000      -1.89740014
2
Properties=species:S:1:pos:R:3:forces:R:3 energy=-3.682971063921621 pbc="F F F"
La       0.00000000       0.00000000       0.00000000       0.00000000       0.00000000       2.02330709
La       0.00000000       0.00000000       3.17818182       0.00000000       0.00000000      -2.02330709
2
Properties=species:S:1:pos:R:3:forces:R:3 energy=-3.5616463734539265 pbc="F F F"
La       0.00000000       0.00000000       0.00000000       0.00000000       0.00000000       2.09569263
La       0.00000000       0.00000000       3.23696970       0.00000000       0.00000000      -2.09569263
2
Properties=species:S:1:pos:R:3:forces:R:3 energy=-3.437533192007379 pbc="F F F"
La       0.00000000       0.00000000       0.00000000       0.00000000       0.00000000       2.11900735
La       0.00000000       0.00000000       3.29575758       0.00000000       0.00000000      -2.11900735
2
Properties=species:S:1:pos:R:3:forces:R:3 energy=-3.313348071952038 pbc="F F F"
La       0.00000000       0.00000000       0.00000000       0.00000000       0.00000000       2.09931183
La       0.00000000       0.00000000       3.35454545       0.00000000       0.00000000      -2.09931183
2
Properties=species:S:1:pos:R:3:forces:R:3 energy=-3.191385149087009 pbc="F F F"
La       0.00000000       0.00000000       0.00000000       0.00000000       0.00000000       2.04493332
La       0.00000000       0.00000000       3.41333333       0.00000000       0.00000000      -2.04493332
2
Properties=species:S:1:pos:R:3:forces:R:3 energy=-3.073394708580644 pbc="F F F"
La       0.00000000       0.00000000       0.00000000       0.00000000       0.00000000       1.96594942
La       0.00000000       0.00000000       3.47212121       0.00000000       0.00000000      -1.96594942
2
Properties=species:S:1:pos:R:3:forces:R:3 energy=-2.960520361851135 pbc="F F F"
La       0.00000000       0.00000000       0.00000000       0.00000000       0.00000000       1.87252533
La       0.00000000       0.00000000       3.53090909       0.00000000       0.00000000      -1.87252533
2
Properties=species:S:1:pos:R:3:forces:R:3 energy=-2.8533491661123764 pbc="F F F"
La       0.00000000       0.00000000       0.00000000       0.00000000       0.00000000       1.77295673
La       0.00000000       0.00000000       3.58969697       0.00000000       0.00000000      -1.77295673
2
Properties=species:S:1:pos:R:3:forces:R:3 energy=-2.752077620562476 pbc="F F F"
La       0.00000000       0.00000000       0.00000000       0.00000000       0.00000000       1.67249334
La       0.00000000       0.00000000       3.64848485       0.00000000       0.00000000      -1.67249334
2
Properties=species:S:1:pos:R:3:forces:R:3 energy=-2.656672931313801 pbc="F F F"
La       0.00000000       0.00000000       0.00000000       0.00000000       0.00000000       1.57371283
La       0.00000000       0.00000000       3.70727273       0.00000000       0.00000000      -1.57371283
2
Properties=species:S:1:pos:R:3:forces:R:3 energy=-2.5669794737699365 pbc="F F F"
La       0.00000000       0.00000000       0.00000000       0.00000000       0.00000000       1.47841656
La       0.00000000       0.00000000       3.76606061       0.00000000       0.00000000      -1.47841656
2
Properties=species:S:1:pos:R:3:forces:R:3 energy=-2.482720597180564 pbc="F F F"
La       0.00000000       0.00000000       0.00000000       0.00000000       0.00000000       1.38954914
La       0.00000000       0.00000000       3.82484848       0.00000000       0.00000000      -1.38954914
2
Properties=species:S:1:pos:R:3:forces:R:3 energy=-2.403406777426807 pbc="F F F"
La       0.00000000       0.00000000       0.00000000       0.00000000       0.00000000       1.31056631
La       0.00000000       0.00000000       3.88363636       0.00000000       0.00000000      -1.31056631
2
Properties=species:S:1:pos:R:3:forces:R:3 energy=-2.3284097316635264 pbc="F F F"
La       0.00000000       0.00000000       0.00000000       0.00000000       0.00000000       1.24263954
La       0.00000000       0.00000000       3.94242424       0.00000000       0.00000000      -1.24263954
2
Properties=species:S:1:pos:R:3:forces:R:3 energy=-2.2571253099346773 pbc="F F F"
La       0.00000000       0.00000000       0.00000000       0.00000000       0.00000000       1.18383324
La       0.00000000       0.00000000       4.00121212       0.00000000       0.00000000      -1.18383324
2
Properties=species:S:1:pos:R:3:forces:R:3 energy=-2.1890843886344746 pbc="F F F"
La       0.00000000       0.00000000       0.00000000       0.00000000       0.00000000       1.13208020
La       0.00000000       0.00000000       4.06000000       0.00000000       0.00000000      -1.13208020
2
Properties=species:S:1:pos:R:3:forces:R:3 energy=-2.1238819555031268 pbc="F F F"
La       0.00000000       0.00000000       0.00000000       0.00000000       0.00000000       1.08741677
La       0.00000000       0.00000000       4.11878788       0.00000000       0.00000000      -1.08741677
2
Properties=species:S:1:pos:R:3:forces:R:3 energy=-2.061071055977209 pbc="F F F"
La       0.00000000       0.00000000       0.00000000       0.00000000       0.00000000       1.05081940
La       0.00000000       0.00000000       4.17757576       0.00000000       0.00000000      -1.05081940
2
Properties=species:S:1:pos:R:3:forces:R:3 energy=-2.000172741728745 pbc="F F F"
La       0.00000000       0.00000000       0.00000000       0.00000000       0.00000000       1.02220082
La       0.00000000       0.00000000       4.23636364       0.00000000       0.00000000      -1.02220082
2
Properties=species:S:1:pos:R:3:forces:R:3 energy=-1.9407623617088405 pbc="F F F"
La       0.00000000       0.00000000       0.00000000       0.00000000       0.00000000       0.99974418
La       0.00000000       0.00000000       4.29515152       0.00000000       0.00000000      -0.99974418
2
Properties=species:S:1:pos:R:3:forces:R:3 energy=-1.8825647450825482 pbc="F F F"
La       0.00000000       0.00000000       0.00000000       0.00000000       0.00000000       0.98049736
La       0.00000000       0.00000000       4.35393939       0.00000000       0.00000000      -0.98049736
2
Properties=species:S:1:pos:R:3:forces:R:3 energy=-1.8254804562041718 pbc="F F F"
La       0.00000000       0.00000000       0.00000000       0.00000000       0.00000000       0.96129596
La       0.00000000       0.00000000       4.41272727       0.00000000       0.00000000      -0.96129596
2
Properties=species:S:1:pos:R:3:forces:R:3 energy=-1.769589656163285 pbc="F F F"
La       0.00000000       0.00000000       0.00000000       0.00000000       0.00000000       0.93953490
La       0.00000000       0.00000000       4.47151515       0.00000000       0.00000000      -0.93953490
2
Properties=species:S:1:pos:R:3:forces:R:3 energy=-1.7150941144666596 pbc="F F F"
La       0.00000000       0.00000000       0.00000000       0.00000000       0.00000000       0.91366655
La       0.00000000       0.00000000       4.53030303       0.00000000       0.00000000      -0.91366655
2
Properties=species:S:1:pos:R:3:forces:R:3 energy=-1.662252555126507 pbc="F F F"
La       0.00000000       0.00000000       0.00000000       0.00000000       0.00000000       0.88335377
La       0.00000000       0.00000000       4.58909091       0.00000000       0.00000000      -0.88335377
2
Properties=species:S:1:pos:R:3:forces:R:3 energy=-1.6113065191701303 pbc="F F F"
La       0.00000000       0.00000000       0.00000000       0.00000000       0.00000000       0.84937257
La       0.00000000       0.00000000       4.64787879       0.00000000       0.00000000      -0.84937257
2
Properties=species:S:1:pos:R:3:forces:R:3 energy=-1.5624284292435657 pbc="F F F"
La       0.00000000       0.00000000       0.00000000       0.00000000       0.00000000       0.81324244
La       0.00000000       0.00000000       4.70666667       0.00000000       0.00000000      -0.81324244
2
Properties=species:S:1:pos:R:3:forces:R:3 energy=-1.5156931314375541 pbc="F F F"
La       0.00000000       0.00000000       0.00000000       0.00000000       0.00000000       0.77684855
La       0.00000000       0.00000000       4.76545455       0.00000000       0.00000000      -0.77684855
2
Properties=species:S:1:pos:R:3:forces:R:3 energy=-1.4710592474573332 pbc="F F F"
La       0.00000000       0.00000000       0.00000000       0.00000000       0.00000000       0.74197394
La       0.00000000       0.00000000       4.82424242       0.00000000       0.00000000      -0.74197394
2
Properties=species:S:1:pos:R:3:forces:R:3 energy=-1.4283992015243623 pbc="F F F"
La       0.00000000       0.00000000       0.00000000       0.00000000       0.00000000       0.71005028
La       0.00000000       0.00000000       4.88303030       0.00000000       0.00000000      -0.71005028
2
Properties=species:S:1:pos:R:3:forces:R:3 energy=-1.3875004758256622 pbc="F F F"
La       0.00000000       0.00000000       0.00000000       0.00000000       0.00000000       0.68193251
La       0.00000000       0.00000000       4.94181818       0.00000000       0.00000000      -0.68193251
2
Properties=species:S:1:pos:R:3:forces:R:3 energy=-1.3481381594539483 pbc="F F F"
La       0.00000000       0.00000000       0.00000000       0.00000000       0.00000000       0.65779227
La       0.00000000       0.00000000       5.00060606       0.00000000       0.00000000      -0.65779227
2
Properties=species:S:1:pos:R:3:forces:R:3 energy=-1.3100920598604322 pbc="F F F"
La       0.00000000       0.00000000       0.00000000       0.00000000       0.00000000       0.63701785
La       0.00000000       0.00000000       5.05939394       0.00000000       0.00000000      -0.63701785
2
Properties=species:S:1:pos:R:3:forces:R:3 energy=-1.273199340339744 pbc="F F F"
La       0.00000000       0.00000000       0.00000000       0.00000000       0.00000000       0.61828405
La       0.00000000       0.00000000       5.11818182       0.00000000       0.00000000      -0.61828405
2
Properties=species:S:1:pos:R:3:forces:R:3 energy=-1.2373976507860764 pbc="F F F"
La       0.00000000       0.00000000       0.00000000       0.00000000       0.00000000       0.59961325
La       0.00000000       0.00000000       5.17696970       0.00000000       0.00000000      -0.59961325
2
Properties=species:S:1:pos:R:3:forces:R:3 energy=-1.202747030524242 pbc="F F F"
La       0.00000000       0.00000000       0.00000000       0.00000000       0.00000000       0.57869440
La       0.00000000       0.00000000       5.23575758       0.00000000       0.00000000      -0.57869440
2
Properties=species:S:1:pos:R:3:forces:R:3 energy=-1.1694492570604926 pbc="F F F"
La       0.00000000       0.00000000       0.00000000       0.00000000       0.00000000       0.55320901
La       0.00000000       0.00000000       5.29454545       0.00000000       0.00000000      -0.55320901
2
Properties=species:S:1:pos:R:3:forces:R:3 energy=-1.1378286292122775 pbc="F F F"
La       0.00000000       0.00000000       0.00000000       0.00000000       0.00000000       0.52125299
La       0.00000000       0.00000000       5.35333333       0.00000000       0.00000000      -0.52125299
2
Properties=species:S:1:pos:R:3:forces:R:3 energy=-1.1083074456725568 pbc="F F F"
La       0.00000000       0.00000000       0.00000000       0.00000000       0.00000000       0.48171070
La       0.00000000       0.00000000       5.41212121       0.00000000       0.00000000      -0.48171070
2
Properties=species:S:1:pos:R:3:forces:R:3 energy=-1.0813407923607254 pbc="F F F"
La       0.00000000       0.00000000       0.00000000       0.00000000       0.00000000       0.43452206
La       0.00000000       0.00000000       5.47090909       0.00000000       0.00000000      -0.43452206
2
Properties=species:S:1:pos:R:3:forces:R:3 energy=-1.0573484194813274 pbc="F F F"
La       0.00000000       0.00000000       0.00000000       0.00000000       0.00000000       0.38071135
La       0.00000000       0.00000000       5.52969697       0.00000000       0.00000000      -0.38071135
2
Properties=species:S:1:pos:R:3:forces:R:3 energy=-1.036668885377338 pbc="F F F"
La       0.00000000       0.00000000       0.00000000       0.00000000       0.00000000       0.32232627
La       0.00000000       0.00000000       5.58848485       0.00000000       0.00000000      -0.32232627
2
Properties=species:S:1:pos:R:3:forces:R:3 energy=-1.0194867867624893 pbc="F F F"
La       0.00000000       0.00000000       0.00000000       0.00000000       0.00000000       0.26219389
La       0.00000000       0.00000000       5.64727273       0.00000000       0.00000000      -0.26219389
2
Properties=species:S:1:pos:R:3:forces:R:3 energy=-1.0058138706324633 pbc="F F F"
La       0.00000000       0.00000000       0.00000000       0.00000000       0.00000000       0.20365374
La       0.00000000       0.00000000       5.70606061       0.00000000       0.00000000      -0.20365374
2
Properties=species:S:1:pos:R:3:forces:R:3 energy=-0.9954366354464896 pbc="F F F"
La       0.00000000       0.00000000       0.00000000       0.00000000       0.00000000       0.14994355
La       0.00000000       0.00000000       5.76484848       0.00000000       0.00000000      -0.14994355
2
Properties=species:S:1:pos:R:3:forces:R:3 energy=-0.9880181281090834 pbc="F F F"
La       0.00000000       0.00000000       0.00000000       0.00000000       0.00000000       0.10426427
La       0.00000000       0.00000000       5.82363636       0.00000000       0.00000000      -0.10426427
2
Properties=species:S:1:pos:R:3:forces:R:3 energy=-0.9829836265090487 pbc="F F F"
La       0.00000000       0.00000000       0.00000000       0.00000000       0.00000000       0.06918098
La       0.00000000       0.00000000       5.88242424       0.00000000       0.00000000      -0.06918098
2
Properties=species:S:1:pos:R:3:forces:R:3 energy=-0.9796336433423858 pbc="F F F"
La       0.00000000       0.00000000       0.00000000       0.00000000       0.00000000       0.04684035
La       0.00000000       0.00000000       5.94121212       0.00000000       0.00000000      -0.04684035
2
Properties=species:S:1:pos:R:3:forces:R:3 energy=-0.9771897102310176 pbc="F F F"
La       0.00000000       0.00000000       0.00000000       0.00000000       0.00000000       0.03887901
La       0.00000000       0.00000000       6.00000000       0.00000000       0.00000000      -0.03887901
