2
Properties=species:S:1:pos:R:3:forces:R:3 energy=1680.4948450413754 pbc="F F F"
P        0.00000000       0.00000000       0.00000000       0.00000000       0.00000000  -22993.16992188
P        0.00000000       0.00000000       0.18000000       0.00000000       0.00000000   22993.16992188
2
Properties=species:S:1:pos:R:3:forces:R:3 energy=824.7343469945002 pbc="F F F"
P        0.00000000       0.00000000       0.00000000       0.00000000       0.00000000   -8818.58007812
P        0.00000000       0.00000000       0.23878788       0.00000000       0.00000000    8818.58007812
2
Properties=species:S:1:pos:R:3:forces:R:3 energy=471.384035721539 pbc="F F F"
P        0.00000000       0.00000000       0.00000000       0.00000000       0.00000000   -3974.44458008
P        0.00000000       0.00000000       0.29757576       0.00000000       0.00000000    3974.44458008
2
Properties=species:S:1:pos:R:3:forces:R:3 energy=303.09311165560905 pbc="F F F"
P        0.00000000       0.00000000       0.00000000       0.00000000       0.00000000   -2021.73449707
P        0.00000000       0.00000000       0.35636364       0.00000000       0.00000000    2021.73449707
2
Properties=species:S:1:pos:R:3:forces:R:3 energy=213.19601694805348 pbc="F F F"
P        0.00000000       0.00000000       0.00000000       0.00000000       0.00000000   -1148.78527832
P        0.00000000       0.00000000       0.41515152       0.00000000       0.00000000    1148.78527832
2
Properties=species:S:1:pos:R:3:forces:R:3 energy=158.27163954149327 pbc="F F F"
P        0.00000000       0.00000000       0.00000000       0.00000000       0.00000000    -781.84051514
P        0.00000000       0.00000000       0.47393939       0.00000000       0.00000000     781.84051514
2
Properties=species:S:1:pos:R:3:forces:R:3 energy=116.86339070665036 pbc="F F F"
P        0.00000000       0.00000000       0.00000000       0.00000000       0.00000000    -642.56982422
P        0.00000000       0.00000000       0.53272727       0.00000000       0.00000000     642.56982422
2
Properties=species:S:1:pos:R:3:forces:R:3 energy=82.12897004432477 pbc="F F F"
P        0.00000000       0.00000000       0.00000000       0.00000000       0.00000000    -537.43518066
P        0.00000000       0.00000000       0.59151515       0.00000000       0.00000000     537.43518066
2
Properties=species:S:1:pos:R:3:forces:R:3 energy=54.985972499030524 pbc="F F F"
P        0.00000000       0.00000000       0.00000000       0.00000000       0.00000000    -375.66806030
P        0.00000000       0.00000000       0.65030303       0.00000000       0.00000000     375.66806030
2
Properties=species:S:1:pos:R:3:forces:R:3 energy=36.56446401407895 pbc="F F F"
P        0.00000000       0.00000000       0.00000000       0.00000000       0.00000000    -220.86512756
P        0.00000000       0.00000000       0.70909091       0.00000000       0.00000000     220.86512756
2
Properties=species:S:1:pos:R:3:forces:R:3 energy=28.561561485626196 pbc="F F F"
P        0.00000000       0.00000000       0.00000000       0.00000000       0.00000000     -75.55863190
P        0.00000000       0.00000000       0.76787879       0.00000000       0.00000000      75.55863190
2
Properties=species:S:1:pos:R:3:forces:R:3 energy=25.059527022548927 pbc="F F F"
P        0.00000000       0.00000000       0.00000000       0.00000000       0.00000000     -51.86682892
P        0.00000000       0.00000000       0.82666667       0.00000000       0.00000000      51.86682892
2
Properties=species:S:1:pos:R:3:forces:R:3 energy=21.900954853939027 pbc="F F F"
P        0.00000000       0.00000000       0.00000000       0.00000000       0.00000000     -63.62757111
P        0.00000000       0.00000000       0.88545455       0.00000000       0.00000000      63.62757111
2
Properties=species:S:1:pos:R:3:forces:R:3 energy=17.75837809110255 pbc="F F F"
P        0.00000000       0.00000000       0.00000000       0.00000000       0.00000000     -72.01315308
P        0.00000000       0.00000000       0.94424242       0.00000000       0.00000000      72.01315308
2
Properties=species:S:1:pos:R:3:forces:R:3 energy=13.836634666160293 pbc="F F F"
P        0.00000000       0.00000000       0.00000000       0.00000000       0.00000000     -60.05735779
P        0.00000000       0.00000000       1.00303030       0.00000000       0.00000000      60.05735779
2
Properties=species:S:1:pos:R:3:forces:R:3 energy=10.632072145864594 pbc="F F F"
P        0.00000000       0.00000000       0.00000000       0.00000000       0.00000000     -51.16314316
P        0.00000000       0.00000000       1.06181818       0.00000000       0.00000000      51.16314316
2
Properties=species:S:1:pos:R:3:forces:R:3 energy=7.608421996523404 pbc="F F F"
P        0.00000000       0.00000000       0.00000000       0.00000000       0.00000000     -51.51587296
P        0.00000000       0.00000000       1.12060606       0.00000000       0.00000000      51.51587296
2
Properties=species:S:1:pos:R:3:forces:R:3 energy=4.73466712374619 pbc="F F F"
P        0.00000000       0.00000000       0.00000000       0.00000000       0.00000000     -45.24059296
P        0.00000000       0.00000000       1.17939394       0.00000000       0.00000000      45.24059296
2
Properties=species:S:1:pos:R:3:forces:R:3 energy=2.3054731112319655 pbc="F F F"
P        0.00000000       0.00000000       0.00000000       0.00000000       0.00000000     -37.75216293
P        0.00000000       0.00000000       1.23818182       0.00000000       0.00000000      37.75216293
2
Properties=species:S:1:pos:R:3:forces:R:3 energy=0.2518071013480043 pbc="F F F"
P        0.00000000       0.00000000       0.00000000       0.00000000       0.00000000     -32.39121628
P        0.00000000       0.00000000       1.29696970       0.00000000       0.00000000      32.39121628
2
Properties=species:S:1:pos:R:3:forces:R:3 energy=-1.522480482030315 pbc="F F F"
P        0.00000000       0.00000000       0.00000000       0.00000000       0.00000000     -28.07696915
P        0.00000000       0.00000000       1.35575758       0.00000000       0.00000000      28.07696915
2
Properties=species:S:1:pos:R:3:forces:R:3 energy=-3.0624772956748583 pbc="F F F"
P        0.00000000       0.00000000       0.00000000       0.00000000       0.00000000     -24.43991470
P        0.00000000       0.00000000       1.41454545       0.00000000       0.00000000      24.43991470
2
Properties=species:S:1:pos:R:3:forces:R:3 energy=-4.4086456189021215 pbc="F F F"
P        0.00000000       0.00000000       0.00000000       0.00000000       0.00000000     -21.42526817
P        0.00000000       0.00000000       1.47333333       0.00000000       0.00000000      21.42526817
2
Properties=species:S:1:pos:R:3:forces:R:3 energy=-5.584759308138076 pbc="F F F"
P        0.00000000       0.00000000       0.00000000       0.00000000       0.00000000     -18.58852196
P        0.00000000       0.00000000       1.53212121       0.00000000       0.00000000      18.58852196
2
Properties=species:S:1:pos:R:3:forces:R:3 energy=-6.593810165754108 pbc="F F F"
P        0.00000000       0.00000000       0.00000000       0.00000000       0.00000000     -15.73570156
P        0.00000000       0.00000000       1.59090909       0.00000000       0.00000000      15.73570156
2
Properties=species:S:1:pos:R:3:forces:R:3 energy=-7.433553511834127 pbc="F F F"
P        0.00000000       0.00000000       0.00000000       0.00000000       0.00000000     -12.80910778
P        0.00000000       0.00000000       1.64969697       0.00000000       0.00000000      12.80910778
2
Properties=species:S:1:pos:R:3:forces:R:3 energy=-8.095499931010487 pbc="F F F"
P        0.00000000       0.00000000       0.00000000       0.00000000       0.00000000      -9.66698456
P        0.00000000       0.00000000       1.70848485       0.00000000       0.00000000       9.66698456
2
Properties=species:S:1:pos:R:3:forces:R:3 energy=-8.566279945564713 pbc="F F F"
P        0.00000000       0.00000000       0.00000000       0.00000000       0.00000000      -6.33874130
P        0.00000000       0.00000000       1.76727273       0.00000000       0.00000000       6.33874130
2
Properties=species:S:1:pos:R:3:forces:R:3 energy=-8.843418786644694 pbc="F F F"
P        0.00000000       0.00000000       0.00000000       0.00000000       0.00000000      -3.14564443
P        0.00000000       0.00000000       1.82606061       0.00000000       0.00000000       3.14564443
2
Properties=species:S:1:pos:R:3:forces:R:3 energy=-8.945772347770976 pbc="F F F"
P        0.00000000       0.00000000       0.00000000       0.00000000       0.00000000      -0.43651155
P        0.00000000       0.00000000       1.88484848       0.00000000       0.00000000       0.43651155
2
Properties=species:S:1:pos:R:3:forces:R:3 energy=-8.90719973314546 pbc="F F F"
P        0.00000000       0.00000000       0.00000000       0.00000000       0.00000000       1.64331388
P        0.00000000       0.00000000       1.94363636       0.00000000       0.00000000      -1.64331388
2
Properties=species:S:1:pos:R:3:forces:R:3 energy=-8.764108042995923 pbc="F F F"
P        0.00000000       0.00000000       0.00000000       0.00000000       0.00000000       3.13633227
P        0.00000000       0.00000000       2.00242424       0.00000000       0.00000000      -3.13633227
2
Properties=species:S:1:pos:R:3:forces:R:3 energy=-8.547504610214219 pbc="F F F"
P        0.00000000       0.00000000       0.00000000       0.00000000       0.00000000       4.16658545
P        0.00000000       0.00000000       2.06121212       0.00000000       0.00000000      -4.16658545
2
Properties=species:S:1:pos:R:3:forces:R:3 energy=-8.280892275985993 pbc="F F F"
P        0.00000000       0.00000000       0.00000000       0.00000000       0.00000000       4.85449791
P        0.00000000       0.00000000       2.12000000       0.00000000       0.00000000      -4.85449791
2
Properties=species:S:1:pos:R:3:forces:R:3 energy=-7.982053076040603 pbc="F F F"
P        0.00000000       0.00000000       0.00000000       0.00000000       0.00000000       5.26931095
P        0.00000000       0.00000000       2.17878788       0.00000000       0.00000000      -5.26931095
2
Properties=species:S:1:pos:R:3:forces:R:3 energy=-7.666297153957502 pbc="F F F"
P        0.00000000       0.00000000       0.00000000       0.00000000       0.00000000       5.43138266
P        0.00000000       0.00000000       2.23757576       0.00000000       0.00000000      -5.43138266
2
Properties=species:S:1:pos:R:3:forces:R:3 energy=-7.348136421577666 pbc="F F F"
P        0.00000000       0.00000000       0.00000000       0.00000000       0.00000000       5.35582924
P        0.00000000       0.00000000       2.29636364       0.00000000       0.00000000      -5.35582924
2
Properties=species:S:1:pos:R:3:forces:R:3 energy=-7.040294673573566 pbc="F F F"
P        0.00000000       0.00000000       0.00000000       0.00000000       0.00000000       5.09210348
P        0.00000000       0.00000000       2.35515152       0.00000000       0.00000000      -5.09210348
2
Properties=species:S:1:pos:R:3:forces:R:3 energy=-6.751524753651797 pbc="F F F"
P        0.00000000       0.00000000       0.00000000       0.00000000       0.00000000       4.72139883
P        0.00000000       0.00000000       2.41393939       0.00000000       0.00000000      -4.72139883
2
Properties=species:S:1:pos:R:3:forces:R:3 energy=-6.4856694862945234 pbc="F F F"
P        0.00000000       0.00000000       0.00000000       0.00000000       0.00000000       4.32416010
P        0.00000000       0.00000000       2.47272727       0.00000000       0.00000000      -4.32416010
2
Properties=species:S:1:pos:R:3:forces:R:3 energy=-6.242598441531783 pbc="F F F"
P        0.00000000       0.00000000       0.00000000       0.00000000       0.00000000       3.95167875
P        0.00000000       0.00000000       2.53151515       0.00000000       0.00000000      -3.95167875
2
Properties=species:S:1:pos:R:3:forces:R:3 energy=-6.02024414982441 pbc="F F F"
P        0.00000000       0.00000000       0.00000000       0.00000000       0.00000000       3.61931872
P        0.00000000       0.00000000       2.59030303       0.00000000       0.00000000      -3.61931872
2
Properties=species:S:1:pos:R:3:forces:R:3 energy=-5.816454837515332 pbc="F F F"
P        0.00000000       0.00000000       0.00000000       0.00000000       0.00000000       3.31734061
P        0.00000000       0.00000000       2.64909091       0.00000000       0.00000000      -3.31734061
2
Properties=species:S:1:pos:R:3:forces:R:3 energy=-5.629957499529414 pbc="F F F"
P        0.00000000       0.00000000       0.00000000       0.00000000       0.00000000       3.02829719
P        0.00000000       0.00000000       2.70787879       0.00000000       0.00000000      -3.02829719
2
Properties=species:S:1:pos:R:3:forces:R:3 energy=-5.460362386833298 pbc="F F F"
P        0.00000000       0.00000000       0.00000000       0.00000000       0.00000000       2.74152994
P        0.00000000       0.00000000       2.76666667       0.00000000       0.00000000      -2.74152994
2
Properties=species:S:1:pos:R:3:forces:R:3 energy=-5.30754459363012 pbc="F F F"
P        0.00000000       0.00000000       0.00000000       0.00000000       0.00000000       2.45899272
P        0.00000000       0.00000000       2.82545455       0.00000000       0.00000000      -2.45899272
2
Properties=species:S:1:pos:R:3:forces:R:3 energy=-5.1709284413189165 pbc="F F F"
P        0.00000000       0.00000000       0.00000000       0.00000000       0.00000000       2.19279599
P        0.00000000       0.00000000       2.88424242       0.00000000       0.00000000      -2.19279599
2
Properties=species:S:1:pos:R:3:forces:R:3 energy=-5.049095440557505 pbc="F F F"
P        0.00000000       0.00000000       0.00000000       0.00000000       0.00000000       1.95850933
P        0.00000000       0.00000000       2.94303030       0.00000000       0.00000000      -1.95850933
2
Properties=species:S:1:pos:R:3:forces:R:3 energy=-4.939793705550361 pbc="F F F"
P        0.00000000       0.00000000       0.00000000       0.00000000       0.00000000       1.76793134
P        0.00000000       0.00000000       3.00181818       0.00000000       0.00000000      -1.76793134
2
Properties=species:S:1:pos:R:3:forces:R:3 energy=-4.8402869790200524 pbc="F F F"
P        0.00000000       0.00000000       0.00000000       0.00000000       0.00000000       1.62528706
P        0.00000000       0.00000000       3.06060606       0.00000000       0.00000000      -1.62528706
2
Properties=species:S:1:pos:R:3:forces:R:3 energy=-4.747818087627091 pbc="F F F"
P        0.00000000       0.00000000       0.00000000       0.00000000       0.00000000       1.52739584
P        0.00000000       0.00000000       3.11939394       0.00000000       0.00000000      -1.52739584
2
Properties=species:S:1:pos:R:3:forces:R:3 energy=-4.660002413608524 pbc="F F F"
P        0.00000000       0.00000000       0.00000000       0.00000000       0.00000000       1.46502626
P        0.00000000       0.00000000       3.17818182       0.00000000       0.00000000      -1.46502626
2
Properties=species:S:1:pos:R:3:forces:R:3 energy=-4.575130428079803 pbc="F F F"
P        0.00000000       0.00000000       0.00000000       0.00000000       0.00000000       1.42488587
P        0.00000000       0.00000000       3.23696970       0.00000000       0.00000000      -1.42488587
2
Properties=species:S:1:pos:R:3:forces:R:3 energy=-4.492323241093482 pbc="F F F"
P        0.00000000       0.00000000       0.00000000       0.00000000       0.00000000       1.39235771
P        0.00000000       0.00000000       3.29575758       0.00000000       0.00000000      -1.39235771
2
Properties=species:S:1:pos:R:3:forces:R:3 energy=-4.411532577640771 pbc="F F F"
P        0.00000000       0.00000000       0.00000000       0.00000000       0.00000000       1.35435104
P        0.00000000       0.00000000       3.35454545       0.00000000       0.00000000      -1.35435104
2
Properties=species:S:1:pos:R:3:forces:R:3 energy=-4.333378386441143 pbc="F F F"
P        0.00000000       0.00000000       0.00000000       0.00000000       0.00000000       1.30149806
P        0.00000000       0.00000000       3.41333333       0.00000000       0.00000000      -1.30149806
2
Properties=species:S:1:pos:R:3:forces:R:3 energy=-4.258890441400217 pbc="F F F"
P        0.00000000       0.00000000       0.00000000       0.00000000       0.00000000       1.22925889
P        0.00000000       0.00000000       3.47212121       0.00000000       0.00000000      -1.22925889
2
Properties=species:S:1:pos:R:3:forces:R:3 energy=-4.189225596022025 pbc="F F F"
P        0.00000000       0.00000000       0.00000000       0.00000000       0.00000000       1.13783240
P        0.00000000       0.00000000       3.53090909       0.00000000       0.00000000      -1.13783240
2
Properties=species:S:1:pos:R:3:forces:R:3 energy=-4.125410514595125 pbc="F F F"
P        0.00000000       0.00000000       0.00000000       0.00000000       0.00000000       1.03109109
P        0.00000000       0.00000000       3.58969697       0.00000000       0.00000000      -1.03109109
2
Properties=species:S:1:pos:R:3:forces:R:3 energy=-4.0681759704482 pbc="F F F"
P        0.00000000       0.00000000       0.00000000       0.00000000       0.00000000       0.91505772
P        0.00000000       0.00000000       3.64848485       0.00000000       0.00000000      -0.91505772
2
Properties=species:S:1:pos:R:3:forces:R:3 energy=-4.017874575701162 pbc="F F F"
P        0.00000000       0.00000000       0.00000000       0.00000000       0.00000000       0.79633135
P        0.00000000       0.00000000       3.70727273       0.00000000       0.00000000      -0.79633135
2
Properties=species:S:1:pos:R:3:forces:R:3 energy=-3.974482122245686 pbc="F F F"
P        0.00000000       0.00000000       0.00000000       0.00000000       0.00000000       0.68085766
P        0.00000000       0.00000000       3.76606061       0.00000000       0.00000000      -0.68085766
2
Properties=species:S:1:pos:R:3:forces:R:3 energy=-3.9376672198091613 pbc="F F F"
P        0.00000000       0.00000000       0.00000000       0.00000000       0.00000000       0.57322359
P        0.00000000       0.00000000       3.82484848       0.00000000       0.00000000      -0.57322359
2
Properties=species:S:1:pos:R:3:forces:R:3 energy=-3.906872740074076 pbc="F F F"
P        0.00000000       0.00000000       0.00000000       0.00000000       0.00000000       0.47636417
P        0.00000000       0.00000000       3.88363636       0.00000000       0.00000000      -0.47636417
2
Properties=species:S:1:pos:R:3:forces:R:3 energy=-3.88141876440295 pbc="F F F"
P        0.00000000       0.00000000       0.00000000       0.00000000       0.00000000       0.39167792
P        0.00000000       0.00000000       3.94242424       0.00000000       0.00000000      -0.39167792
2
Properties=species:S:1:pos:R:3:forces:R:3 energy=-3.860579353868808 pbc="F F F"
P        0.00000000       0.00000000       0.00000000       0.00000000       0.00000000       0.31930536
P        0.00000000       0.00000000       4.00121212       0.00000000       0.00000000      -0.31930536
2
Properties=species:S:1:pos:R:3:forces:R:3 energy=-3.8436487345855093 pbc="F F F"
P        0.00000000       0.00000000       0.00000000       0.00000000       0.00000000       0.25852498
P        0.00000000       0.00000000       4.06000000       0.00000000       0.00000000      -0.25852498
2
Properties=species:S:1:pos:R:3:forces:R:3 energy=-3.8299793433100926 pbc="F F F"
P        0.00000000       0.00000000       0.00000000       0.00000000       0.00000000       0.20813471
P        0.00000000       0.00000000       4.11878788       0.00000000       0.00000000      -0.20813471
2
Properties=species:S:1:pos:R:3:forces:R:3 energy=-3.819000797974886 pbc="F F F"
P        0.00000000       0.00000000       0.00000000       0.00000000       0.00000000       0.16674721
P        0.00000000       0.00000000       4.17757576       0.00000000       0.00000000      -0.16674721
2
Properties=species:S:1:pos:R:3:forces:R:3 energy=-3.8102241005229103 pbc="F F F"
P        0.00000000       0.00000000       0.00000000       0.00000000       0.00000000       0.13300356
P        0.00000000       0.00000000       4.23636364       0.00000000       0.00000000      -0.13300356
2
Properties=species:S:1:pos:R:3:forces:R:3 energy=-3.803237299440032 pbc="F F F"
P        0.00000000       0.00000000       0.00000000       0.00000000       0.00000000       0.10566564
P        0.00000000       0.00000000       4.29515152       0.00000000       0.00000000      -0.10566564
2
Properties=species:S:1:pos:R:3:forces:R:3 energy=-3.7976962611224696 pbc="F F F"
P        0.00000000       0.00000000       0.00000000       0.00000000       0.00000000       0.08364952
P        0.00000000       0.00000000       4.35393939       0.00000000       0.00000000      -0.08364952
2
Properties=species:S:1:pos:R:3:forces:R:3 energy=-3.7933164432678588 pbc="F F F"
P        0.00000000       0.00000000       0.00000000       0.00000000       0.00000000       0.06601819
P        0.00000000       0.00000000       4.41272727       0.00000000       0.00000000      -0.06601819
2
Properties=species:S:1:pos:R:3:forces:R:3 energy=-3.7898636709944897 pbc="F F F"
P        0.00000000       0.00000000       0.00000000       0.00000000       0.00000000       0.05198713
P        0.00000000       0.00000000       4.47151515       0.00000000       0.00000000      -0.05198713
2
Properties=species:S:1:pos:R:3:forces:R:3 energy=-3.7871458840578813 pbc="F F F"
P        0.00000000       0.00000000       0.00000000       0.00000000       0.00000000       0.04092572
P        0.00000000       0.00000000       4.53030303       0.00000000       0.00000000      -0.04092572
2
Properties=species:S:1:pos:R:3:forces:R:3 energy=-3.785003112183079 pbc="F F F"
P        0.00000000       0.00000000       0.00000000       0.00000000       0.00000000       0.03234837
P        0.00000000       0.00000000       4.58909091       0.00000000       0.00000000      -0.03234837
2
Properties=species:S:1:pos:R:3:forces:R:3 energy=-3.783301342705866 pbc="F F F"
P        0.00000000       0.00000000       0.00000000       0.00000000       0.00000000       0.02587414
P        0.00000000       0.00000000       4.64787879       0.00000000       0.00000000      -0.02587414
2
Properties=species:S:1:pos:R:3:forces:R:3 energy=-3.7819264230600145 pbc="F F F"
P        0.00000000       0.00000000       0.00000000       0.00000000       0.00000000       0.02115834
P        0.00000000       0.00000000       4.70666667       0.00000000       0.00000000      -0.02115834
2
Properties=species:S:1:pos:R:3:forces:R:3 energy=-3.7807862350548955 pbc="F F F"
P        0.00000000       0.00000000       0.00000000       0.00000000       0.00000000       0.01783064
P        0.00000000       0.00000000       4.76545455       0.00000000       0.00000000      -0.01783064
2
Properties=species:S:1:pos:R:3:forces:R:3 energy=-3.779811001402236 pbc="F F F"
P        0.00000000       0.00000000       0.00000000       0.00000000       0.00000000       0.01546964
P        0.00000000       0.00000000       4.82424242       0.00000000       0.00000000      -0.01546964
2
Properties=species:S:1:pos:R:3:forces:R:3 energy=-3.7789574275309827 pbc="F F F"
P        0.00000000       0.00000000       0.00000000       0.00000000       0.00000000       0.01362966
P        0.00000000       0.00000000       4.88303030       0.00000000       0.00000000      -0.01362966
2
Properties=species:S:1:pos:R:3:forces:R:3 energy=-3.778206547900536 pbc="F F F"
P        0.00000000       0.00000000       0.00000000       0.00000000       0.00000000       0.01190058
P        0.00000000       0.00000000       4.94181818       0.00000000       0.00000000      -0.01190058
2
Properties=species:S:1:pos:R:3:forces:R:3 energy=-3.7775619247741568 pbc="F F F"
P        0.00000000       0.00000000       0.00000000       0.00000000       0.00000000       0.00997343
P        0.00000000       0.00000000       5.00060606       0.00000000       0.00000000      -0.00997343
2
Properties=species:S:1:pos:R:3:forces:R:3 energy=-3.7770410897007434 pbc="F F F"
P        0.00000000       0.00000000       0.00000000       0.00000000       0.00000000       0.00767705
P        0.00000000       0.00000000       5.05939394       0.00000000       0.00000000      -0.00767705
2
Properties=species:S:1:pos:R:3:forces:R:3 energy=-3.7766672202473597 pbc="F F F"
P        0.00000000       0.00000000       0.00000000       0.00000000       0.00000000       0.00498802
P        0.00000000       0.00000000       5.11818182       0.00000000       0.00000000      -0.00498802
2
Properties=species:S:1:pos:R:3:forces:R:3 energy=-3.7764603636532756 pbc="F F F"
P        0.00000000       0.00000000       0.00000000       0.00000000       0.00000000       0.00201251
P        0.00000000       0.00000000       5.17696970       0.00000000       0.00000000      -0.00201251
2
Properties=species:S:1:pos:R:3:forces:R:3 energy=-3.7764322169638054 pbc="F F F"
P        0.00000000       0.00000000       0.00000000       0.00000000       0.00000000      -0.00104556
P        0.00000000       0.00000000       5.23575758       0.00000000       0.00000000       0.00104556
2
Properties=species:S:1:pos:R:3:forces:R:3 energy=-3.7765797031919117 pbc="F F F"
P        0.00000000       0.00000000       0.00000000       0.00000000       0.00000000      -0.00392263
P        0.00000000       0.00000000       5.29454545       0.00000000       0.00000000       0.00392263
2
Properties=species:S:1:pos:R:3:forces:R:3 energy=-3.7768845285351405 pbc="F F F"
P        0.00000000       0.00000000       0.00000000       0.00000000       0.00000000      -0.00634143
P        0.00000000       0.00000000       5.35333333       0.00000000       0.00000000       0.00634143
2
Properties=species:S:1:pos:R:3:forces:R:3 energy=-3.7773114968144967 pbc="F F F"
P        0.00000000       0.00000000       0.00000000       0.00000000       0.00000000      -0.00805360
P        0.00000000       0.00000000       5.41212121       0.00000000       0.00000000       0.00805360
2
Properties=species:S:1:pos:R:3:forces:R:3 energy=-3.777814032699544 pbc="F F F"
P        0.00000000       0.00000000       0.00000000       0.00000000       0.00000000      -0.00888992
P        0.00000000       0.00000000       5.47090909       0.00000000       0.00000000       0.00888992
2
Properties=species:S:1:pos:R:3:forces:R:3 energy=-3.778338462155449 pbc="F F F"
P        0.00000000       0.00000000       0.00000000       0.00000000       0.00000000      -0.00878916
P        0.00000000       0.00000000       5.52969697       0.00000000       0.00000000       0.00878916
2
Properties=species:S:1:pos:R:3:forces:R:3 energy=-3.778830215285816 pbc="F F F"
P        0.00000000       0.00000000       0.00000000       0.00000000       0.00000000      -0.00781359
P        0.00000000       0.00000000       5.58848485       0.00000000       0.00000000       0.00781359
2
Properties=species:S:1:pos:R:3:forces:R:3 energy=-3.7792433900023394 pbc="F F F"
P        0.00000000       0.00000000       0.00000000       0.00000000       0.00000000      -0.00614246
P        0.00000000       0.00000000       5.64727273       0.00000000       0.00000000       0.00614246
2
Properties=species:S:1:pos:R:3:forces:R:3 energy=-3.779543817412244 pbc="F F F"
P        0.00000000       0.00000000       0.00000000       0.00000000       0.00000000      -0.00403946
P        0.00000000       0.00000000       5.70606061       0.00000000       0.00000000       0.00403946
2
Properties=species:S:1:pos:R:3:forces:R:3 energy=-3.7797164777408363 pbc="F F F"
P        0.00000000       0.00000000       0.00000000       0.00000000       0.00000000      -0.00180878
P        0.00000000       0.00000000       5.76484848       0.00000000       0.00000000       0.00180878
2
Properties=species:S:1:pos:R:3:forces:R:3 energy=-3.7797602539348314 pbc="F F F"
P        0.00000000       0.00000000       0.00000000       0.00000000       0.00000000       0.00024851
P        0.00000000       0.00000000       5.82363636       0.00000000       0.00000000      -0.00024851
2
Properties=species:S:1:pos:R:3:forces:R:3 energy=-3.779695064420838 pbc="F F F"
P        0.00000000       0.00000000       0.00000000       0.00000000       0.00000000       0.00187021
P        0.00000000       0.00000000       5.88242424       0.00000000       0.00000000      -0.00187021
2
Properties=species:S:1:pos:R:3:forces:R:3 energy=-3.779552822602261 pbc="F F F"
P        0.00000000       0.00000000       0.00000000       0.00000000       0.00000000       0.00285926
P        0.00000000       0.00000000       5.94121212       0.00000000       0.00000000      -0.00285926
2
Properties=species:S:1:pos:R:3:forces:R:3 energy=-3.779374323162577 pbc="F F F"
P        0.00000000       0.00000000       0.00000000       0.00000000       0.00000000       0.00307396
P        0.00000000       0.00000000       6.00000000       0.00000000       0.00000000      -0.00307396
