2
Properties=species:S:1:pos:R:3:forces:R:3 energy=20508.078346447375 pbc="F F F"
Pa       0.00000000       0.00000000       0.00000000       0.00000000       0.00000000 -369788.81250000
Pa       0.00000000       0.00000000       0.18000000       0.00000000       0.00000000  369788.81250000
2
Properties=species:S:1:pos:R:3:forces:R:3 energy=7713.208229259875 pbc="F F F"
Pa       0.00000000       0.00000000       0.00000000       0.00000000       0.00000000 -119308.12500000
Pa       0.00000000       0.00000000       0.23878788       0.00000000       0.00000000  119308.12500000
2
Properties=species:S:1:pos:R:3:forces:R:3 energy=3268.736793713 pbc="F F F"
Pa       0.00000000       0.00000000       0.00000000       0.00000000       0.00000000  -45227.00781250
Pa       0.00000000       0.00000000       0.29757576       0.00000000       0.00000000   45227.00781250
2
Properties=species:S:1:pos:R:3:forces:R:3 energy=1504.1657488037968 pbc="F F F"
Pa       0.00000000       0.00000000       0.00000000       0.00000000       0.00000000  -18978.76757812
Pa       0.00000000       0.00000000       0.35636364       0.00000000       0.00000000   18978.76757812
2
Properties=species:S:1:pos:R:3:forces:R:3 energy=738.092567651453 pbc="F F F"
Pa       0.00000000       0.00000000       0.00000000       0.00000000       0.00000000   -8588.81152344
Pa       0.00000000       0.00000000       0.41515152       0.00000000       0.00000000    8588.81152344
2
Properties=species:S:1:pos:R:3:forces:R:3 energy=381.4607622442024 pbc="F F F"
Pa       0.00000000       0.00000000       0.00000000       0.00000000       0.00000000   -4139.49169922
Pa       0.00000000       0.00000000       0.47393939       0.00000000       0.00000000    4139.49169922
2
Properties=species:S:1:pos:R:3:forces:R:3 energy=205.2431414072643 pbc="F F F"
Pa       0.00000000       0.00000000       0.00000000       0.00000000       0.00000000   -2107.94921875
Pa       0.00000000       0.00000000       0.53272727       0.00000000       0.00000000    2107.94921875
2
Properties=species:S:1:pos:R:3:forces:R:3 energy=113.5104372700092 pbc="F F F"
Pa       0.00000000       0.00000000       0.00000000       0.00000000       0.00000000   -1126.30078125
Pa       0.00000000       0.00000000       0.59151515       0.00000000       0.00000000    1126.30078125
2
Properties=species:S:1:pos:R:3:forces:R:3 energy=63.55349761075745 pbc="F F F"
Pa       0.00000000       0.00000000       0.00000000       0.00000000       0.00000000    -627.03192139
Pa       0.00000000       0.00000000       0.65030303       0.00000000       0.00000000     627.03192139
2
Properties=species:S:1:pos:R:3:forces:R:3 energy=35.29230153763928 pbc="F F F"
Pa       0.00000000       0.00000000       0.00000000       0.00000000       0.00000000    -361.20642090
Pa       0.00000000       0.00000000       0.70909091       0.00000000       0.00000000     361.20642090
2
Properties=species:S:1:pos:R:3:forces:R:3 energy=18.79735992758381 pbc="F F F"
Pa       0.00000000       0.00000000       0.00000000       0.00000000       0.00000000    -213.91383362
Pa       0.00000000       0.00000000       0.76787879       0.00000000       0.00000000     213.91383362
2
Properties=species:S:1:pos:R:3:forces:R:3 energy=8.92612898786642 pbc="F F F"
Pa       0.00000000       0.00000000       0.00000000       0.00000000       0.00000000    -129.47999573
Pa       0.00000000       0.00000000       0.82666667       0.00000000       0.00000000     129.47999573
2
Properties=species:S:1:pos:R:3:forces:R:3 energy=2.9035271219794985 pbc="F F F"
Pa       0.00000000       0.00000000       0.00000000       0.00000000       0.00000000     -79.65940094
Pa       0.00000000       0.00000000       0.88545455       0.00000000       0.00000000      79.65940094
2
Properties=species:S:1:pos:R:3:forces:R:3 energy=-0.8209465651705112 pbc="F F F"
Pa       0.00000000       0.00000000       0.00000000       0.00000000       0.00000000     -49.49720764
Pa       0.00000000       0.00000000       0.94424242       0.00000000       0.00000000      49.49720764
2
Properties=species:S:1:pos:R:3:forces:R:3 energy=-3.1380504992888856 pbc="F F F"
Pa       0.00000000       0.00000000       0.00000000       0.00000000       0.00000000     -30.77204704
Pa       0.00000000       0.00000000       1.00303030       0.00000000       0.00000000      30.77204704
2
Properties=species:S:1:pos:R:3:forces:R:3 energy=-4.570674307152138 pbc="F F F"
Pa       0.00000000       0.00000000       0.00000000       0.00000000       0.00000000     -18.82948875
Pa       0.00000000       0.00000000       1.06181818       0.00000000       0.00000000      18.82948875
2
Properties=species:S:1:pos:R:3:forces:R:3 energy=-5.431611205598697 pbc="F F F"
Pa       0.00000000       0.00000000       0.00000000       0.00000000       0.00000000     -10.98932743
Pa       0.00000000       0.00000000       1.12060606       0.00000000       0.00000000      10.98932743
2
Properties=species:S:1:pos:R:3:forces:R:3 energy=-5.912508184037012 pbc="F F F"
Pa       0.00000000       0.00000000       0.00000000       0.00000000       0.00000000      -5.71002579
Pa       0.00000000       0.00000000       1.17939394       0.00000000       0.00000000       5.71002579
2
Properties=species:S:1:pos:R:3:forces:R:3 energy=-6.135901851022653 pbc="F F F"
Pa       0.00000000       0.00000000       0.00000000       0.00000000       0.00000000      -2.12378907
Pa       0.00000000       0.00000000       1.23818182       0.00000000       0.00000000       2.12378907
2
Properties=species:S:1:pos:R:3:forces:R:3 energy=-6.1858981370170945 pbc="F F F"
Pa       0.00000000       0.00000000       0.00000000       0.00000000       0.00000000       0.24761520
Pa       0.00000000       0.00000000       1.29696970       0.00000000       0.00000000      -0.24761520
2
Properties=species:S:1:pos:R:3:forces:R:3 energy=-6.125008397413113 pbc="F F F"
Pa       0.00000000       0.00000000       0.00000000       0.00000000       0.00000000       1.68730962
Pa       0.00000000       0.00000000       1.35575758       0.00000000       0.00000000      -1.68730962
2
Properties=species:S:1:pos:R:3:forces:R:3 energy=-6.001555697961153 pbc="F F F"
Pa       0.00000000       0.00000000       0.00000000       0.00000000       0.00000000       2.40998077
Pa       0.00000000       0.00000000       1.41454545       0.00000000       0.00000000      -2.40998077
2
Properties=species:S:1:pos:R:3:forces:R:3 energy=-5.85189114120936 pbc="F F F"
Pa       0.00000000       0.00000000       0.00000000       0.00000000       0.00000000       2.60880971
Pa       0.00000000       0.00000000       1.47333333       0.00000000       0.00000000      -2.60880971
2
Properties=species:S:1:pos:R:3:forces:R:3 energy=-5.702024198090064 pbc="F F F"
Pa       0.00000000       0.00000000       0.00000000       0.00000000       0.00000000       2.43787909
Pa       0.00000000       0.00000000       1.53212121       0.00000000       0.00000000      -2.43787909
2
Properties=species:S:1:pos:R:3:forces:R:3 energy=-5.57055663626904 pbc="F F F"
Pa       0.00000000       0.00000000       0.00000000       0.00000000       0.00000000       1.99563599
Pa       0.00000000       0.00000000       1.59090909       0.00000000       0.00000000      -1.99563599
2
Properties=species:S:1:pos:R:3:forces:R:3 energy=-5.471272686917584 pbc="F F F"
Pa       0.00000000       0.00000000       0.00000000       0.00000000       0.00000000       1.35594583
Pa       0.00000000       0.00000000       1.64969697       0.00000000       0.00000000      -1.35594583
2
Properties=species:S:1:pos:R:3:forces:R:3 energy=-5.413175849872713 pbc="F F F"
Pa       0.00000000       0.00000000       0.00000000       0.00000000       0.00000000       0.61270249
Pa       0.00000000       0.00000000       1.70848485       0.00000000       0.00000000      -0.61270249
2
Properties=species:S:1:pos:R:3:forces:R:3 energy=-5.398983894195567 pbc="F F F"
Pa       0.00000000       0.00000000       0.00000000       0.00000000       0.00000000      -0.11836584
Pa       0.00000000       0.00000000       1.76727273       0.00000000       0.00000000       0.11836584
2
Properties=species:S:1:pos:R:3:forces:R:3 energy=-5.424900039691916 pbc="F F F"
Pa       0.00000000       0.00000000       0.00000000       0.00000000       0.00000000      -0.73953009
Pa       0.00000000       0.00000000       1.82606061       0.00000000       0.00000000       0.73953009
2
Properties=species:S:1:pos:R:3:forces:R:3 energy=-5.48300903828955 pbc="F F F"
Pa       0.00000000       0.00000000       0.00000000       0.00000000       0.00000000      -1.21428049
Pa       0.00000000       0.00000000       1.88484848       0.00000000       0.00000000       1.21428049
2
Properties=species:S:1:pos:R:3:forces:R:3 energy=-5.565589651283209 pbc="F F F"
Pa       0.00000000       0.00000000       0.00000000       0.00000000       0.00000000      -1.58456349
Pa       0.00000000       0.00000000       1.94363636       0.00000000       0.00000000       1.58456349
2
Properties=species:S:1:pos:R:3:forces:R:3 energy=-5.668828333150391 pbc="F F F"
Pa       0.00000000       0.00000000       0.00000000       0.00000000       0.00000000      -1.92707455
Pa       0.00000000       0.00000000       2.00242424       0.00000000       0.00000000       1.92707455
2
Properties=species:S:1:pos:R:3:forces:R:3 energy=-5.791759133849656 pbc="F F F"
Pa       0.00000000       0.00000000       0.00000000       0.00000000       0.00000000      -2.24485469
Pa       0.00000000       0.00000000       2.06121212       0.00000000       0.00000000       2.24485469
2
Properties=species:S:1:pos:R:3:forces:R:3 energy=-5.930537926923935 pbc="F F F"
Pa       0.00000000       0.00000000       0.00000000       0.00000000       0.00000000      -2.45077777
Pa       0.00000000       0.00000000       2.12000000       0.00000000       0.00000000       2.45077777
2
Properties=species:S:1:pos:R:3:forces:R:3 energy=-6.076651797272464 pbc="F F F"
Pa       0.00000000       0.00000000       0.00000000       0.00000000       0.00000000      -2.49329281
Pa       0.00000000       0.00000000       2.17878788       0.00000000       0.00000000       2.49329281
2
Properties=species:S:1:pos:R:3:forces:R:3 energy=-6.220964565614839 pbc="F F F"
Pa       0.00000000       0.00000000       0.00000000       0.00000000       0.00000000      -2.39710021
Pa       0.00000000       0.00000000       2.23757576       0.00000000       0.00000000       2.39710021
2
Properties=species:S:1:pos:R:3:forces:R:3 energy=-6.356652185365629 pbc="F F F"
Pa       0.00000000       0.00000000       0.00000000       0.00000000       0.00000000      -2.20649624
Pa       0.00000000       0.00000000       2.29636364       0.00000000       0.00000000       2.20649624
2
Properties=species:S:1:pos:R:3:forces:R:3 energy=-6.479195125911135 pbc="F F F"
Pa       0.00000000       0.00000000       0.00000000       0.00000000       0.00000000      -1.95427084
Pa       0.00000000       0.00000000       2.35515152       0.00000000       0.00000000       1.95427084
2
Properties=species:S:1:pos:R:3:forces:R:3 energy=-6.585647330560706 pbc="F F F"
Pa       0.00000000       0.00000000       0.00000000       0.00000000       0.00000000      -1.66198862
Pa       0.00000000       0.00000000       2.41393939       0.00000000       0.00000000       1.66198862
2
Properties=species:S:1:pos:R:3:forces:R:3 energy=-6.674110881382576 pbc="F F F"
Pa       0.00000000       0.00000000       0.00000000       0.00000000       0.00000000      -1.34442925
Pa       0.00000000       0.00000000       2.47272727       0.00000000       0.00000000       1.34442925
2
Properties=species:S:1:pos:R:3:forces:R:3 energy=-6.743429164827946 pbc="F F F"
Pa       0.00000000       0.00000000       0.00000000       0.00000000       0.00000000      -1.01209104
Pa       0.00000000       0.00000000       2.53151515       0.00000000       0.00000000       1.01209104
2
Properties=species:S:1:pos:R:3:forces:R:3 energy=-6.7929871910032915 pbc="F F F"
Pa       0.00000000       0.00000000       0.00000000       0.00000000       0.00000000      -0.67351127
Pa       0.00000000       0.00000000       2.59030303       0.00000000       0.00000000       0.67351127
2
Properties=species:S:1:pos:R:3:forces:R:3 energy=-6.822675430074073 pbc="F F F"
Pa       0.00000000       0.00000000       0.00000000       0.00000000       0.00000000      -0.33788720
Pa       0.00000000       0.00000000       2.64909091       0.00000000       0.00000000       0.33788720
2
Properties=species:S:1:pos:R:3:forces:R:3 energy=-6.832997902244181 pbc="F F F"
Pa       0.00000000       0.00000000       0.00000000       0.00000000       0.00000000      -0.01686092
Pa       0.00000000       0.00000000       2.70787879       0.00000000       0.00000000       0.01686092
2
Properties=species:S:1:pos:R:3:forces:R:3 energy=-6.825215832453449 pbc="F F F"
Pa       0.00000000       0.00000000       0.00000000       0.00000000       0.00000000       0.27564710
Pa       0.00000000       0.00000000       2.76666667       0.00000000       0.00000000      -0.27564710
2
Properties=species:S:1:pos:R:3:forces:R:3 energy=-6.801419952227651 pbc="F F F"
Pa       0.00000000       0.00000000       0.00000000       0.00000000       0.00000000       0.52579772
Pa       0.00000000       0.00000000       2.82545455       0.00000000       0.00000000      -0.52579772
2
Properties=species:S:1:pos:R:3:forces:R:3 energy=-6.764434921506768 pbc="F F F"
Pa       0.00000000       0.00000000       0.00000000       0.00000000       0.00000000       0.72306854
Pa       0.00000000       0.00000000       2.88424242       0.00000000       0.00000000      -0.72306854
2
Properties=species:S:1:pos:R:3:forces:R:3 energy=-6.717540513619806 pbc="F F F"
Pa       0.00000000       0.00000000       0.00000000       0.00000000       0.00000000       0.86266482
Pa       0.00000000       0.00000000       2.94303030       0.00000000       0.00000000      -0.86266482
2
Properties=species:S:1:pos:R:3:forces:R:3 energy=-6.664109058989615 pbc="F F F"
Pa       0.00000000       0.00000000       0.00000000       0.00000000       0.00000000       0.94616526
Pa       0.00000000       0.00000000       3.00181818       0.00000000       0.00000000      -0.94616526
2
Properties=species:S:1:pos:R:3:forces:R:3 energy=-6.607258619792126 pbc="F F F"
Pa       0.00000000       0.00000000       0.00000000       0.00000000       0.00000000       0.98056984
Pa       0.00000000       0.00000000       3.06060606       0.00000000       0.00000000      -0.98056984
2
Properties=species:S:1:pos:R:3:forces:R:3 energy=-6.549573951519782 pbc="F F F"
Pa       0.00000000       0.00000000       0.00000000       0.00000000       0.00000000       0.97649640
Pa       0.00000000       0.00000000       3.11939394       0.00000000       0.00000000      -0.97649640
2
Properties=species:S:1:pos:R:3:forces:R:3 energy=-6.49295991590516 pbc="F F F"
Pa       0.00000000       0.00000000       0.00000000       0.00000000       0.00000000       0.94616455
Pa       0.00000000       0.00000000       3.17818182       0.00000000       0.00000000      -0.94616455
2
Properties=species:S:1:pos:R:3:forces:R:3 energy=-6.438605350666735 pbc="F F F"
Pa       0.00000000       0.00000000       0.00000000       0.00000000       0.00000000       0.90160888
Pa       0.00000000       0.00000000       3.23696970       0.00000000       0.00000000      -0.90160888
2
Properties=species:S:1:pos:R:3:forces:R:3 energy=-6.3870243309302595 pbc="F F F"
Pa       0.00000000       0.00000000       0.00000000       0.00000000       0.00000000       0.85335916
Pa       0.00000000       0.00000000       3.29575758       0.00000000       0.00000000      -0.85335916
2
Properties=species:S:1:pos:R:3:forces:R:3 energy=-6.33818021024634 pbc="F F F"
Pa       0.00000000       0.00000000       0.00000000       0.00000000       0.00000000       0.80967438
Pa       0.00000000       0.00000000       3.35454545       0.00000000       0.00000000      -0.80967438
2
Properties=species:S:1:pos:R:3:forces:R:3 energy=-6.291623924037082 pbc="F F F"
Pa       0.00000000       0.00000000       0.00000000       0.00000000       0.00000000       0.77622974
Pa       0.00000000       0.00000000       3.41333333       0.00000000       0.00000000      -0.77622974
2
Properties=species:S:1:pos:R:3:forces:R:3 energy=-6.246650110087961 pbc="F F F"
Pa       0.00000000       0.00000000       0.00000000       0.00000000       0.00000000       0.75618851
Pa       0.00000000       0.00000000       3.47212121       0.00000000       0.00000000      -0.75618851
2
Properties=species:S:1:pos:R:3:forces:R:3 energy=-6.202431960092766 pbc="F F F"
Pa       0.00000000       0.00000000       0.00000000       0.00000000       0.00000000       0.75054067
Pa       0.00000000       0.00000000       3.53090909       0.00000000       0.00000000      -0.75054067
2
Properties=species:S:1:pos:R:3:forces:R:3 energy=-6.158133179687275 pbc="F F F"
Pa       0.00000000       0.00000000       0.00000000       0.00000000       0.00000000       0.75867844
Pa       0.00000000       0.00000000       3.58969697       0.00000000       0.00000000      -0.75867844
2
Properties=species:S:1:pos:R:3:forces:R:3 energy=-6.11298981437114 pbc="F F F"
Pa       0.00000000       0.00000000       0.00000000       0.00000000       0.00000000       0.77899325
Pa       0.00000000       0.00000000       3.64848485       0.00000000       0.00000000      -0.77899325
2
Properties=species:S:1:pos:R:3:forces:R:3 energy=-6.066347156038396 pbc="F F F"
Pa       0.00000000       0.00000000       0.00000000       0.00000000       0.00000000       0.80930477
Pa       0.00000000       0.00000000       3.70727273       0.00000000       0.00000000      -0.80930477
2
Properties=species:S:1:pos:R:3:forces:R:3 energy=-6.017690585337279 pbc="F F F"
Pa       0.00000000       0.00000000       0.00000000       0.00000000       0.00000000       0.84697527
Pa       0.00000000       0.00000000       3.76606061       0.00000000       0.00000000      -0.84697527
2
Properties=species:S:1:pos:R:3:forces:R:3 energy=-5.966681359799673 pbc="F F F"
Pa       0.00000000       0.00000000       0.00000000       0.00000000       0.00000000       0.88880640
Pa       0.00000000       0.00000000       3.82484848       0.00000000       0.00000000      -0.88880640
2
Properties=species:S:1:pos:R:3:forces:R:3 energy=-5.913181962238221 pbc="F F F"
Pa       0.00000000       0.00000000       0.00000000       0.00000000       0.00000000       0.93094194
Pa       0.00000000       0.00000000       3.88363636       0.00000000       0.00000000      -0.93094194
2
Properties=species:S:1:pos:R:3:forces:R:3 energy=-5.8573042486280205 pbc="F F F"
Pa       0.00000000       0.00000000       0.00000000       0.00000000       0.00000000       0.96902746
Pa       0.00000000       0.00000000       3.94242424       0.00000000       0.00000000      -0.96902746
2
Properties=species:S:1:pos:R:3:forces:R:3 energy=-5.799414705986647 pbc="F F F"
Pa       0.00000000       0.00000000       0.00000000       0.00000000       0.00000000       0.99867934
Pa       0.00000000       0.00000000       4.00121212       0.00000000       0.00000000      -0.99867934
2
Properties=species:S:1:pos:R:3:forces:R:3 energy=-5.7401245021502785 pbc="F F F"
Pa       0.00000000       0.00000000       0.00000000       0.00000000       0.00000000       1.01611340
Pa       0.00000000       0.00000000       4.06000000       0.00000000       0.00000000      -1.01611340
2
Properties=species:S:1:pos:R:3:forces:R:3 energy=-5.680236041998108 pbc="F F F"
Pa       0.00000000       0.00000000       0.00000000       0.00000000       0.00000000       1.01872671
Pa       0.00000000       0.00000000       4.11878788       0.00000000       0.00000000      -1.01872671
2
Properties=species:S:1:pos:R:3:forces:R:3 energy=-5.620659177161035 pbc="F F F"
Pa       0.00000000       0.00000000       0.00000000       0.00000000       0.00000000       1.00543976
Pa       0.00000000       0.00000000       4.17757576       0.00000000       0.00000000      -1.00543976
2
Properties=species:S:1:pos:R:3:forces:R:3 energy=-5.562323887800909 pbc="F F F"
Pa       0.00000000       0.00000000       0.00000000       0.00000000       0.00000000       0.97668254
Pa       0.00000000       0.00000000       4.23636364       0.00000000       0.00000000      -0.97668254
2
Properties=species:S:1:pos:R:3:forces:R:3 energy=-5.506093574275472 pbc="F F F"
Pa       0.00000000       0.00000000       0.00000000       0.00000000       0.00000000       0.93416250
Pa       0.00000000       0.00000000       4.29515152       0.00000000       0.00000000      -0.93416250
2
Properties=species:S:1:pos:R:3:forces:R:3 energy=-5.4527084148868425 pbc="F F F"
Pa       0.00000000       0.00000000       0.00000000       0.00000000       0.00000000       0.88048869
Pa       0.00000000       0.00000000       4.35393939       0.00000000       0.00000000      -0.88048869
2
Properties=species:S:1:pos:R:3:forces:R:3 energy=-5.402729468228048 pbc="F F F"
Pa       0.00000000       0.00000000       0.00000000       0.00000000       0.00000000       0.81873101
Pa       0.00000000       0.00000000       4.41272727       0.00000000       0.00000000      -0.81873101
2
Properties=species:S:1:pos:R:3:forces:R:3 energy=-5.356540274756899 pbc="F F F"
Pa       0.00000000       0.00000000       0.00000000       0.00000000       0.00000000       0.75209594
Pa       0.00000000       0.00000000       4.47151515       0.00000000       0.00000000      -0.75209594
2
Properties=species:S:1:pos:R:3:forces:R:3 energy=-5.31433782223256 pbc="F F F"
Pa       0.00000000       0.00000000       0.00000000       0.00000000       0.00000000       0.68354601
Pa       0.00000000       0.00000000       4.53030303       0.00000000       0.00000000      -0.68354601
2
Properties=species:S:1:pos:R:3:forces:R:3 energy=-5.276161143273753 pbc="F F F"
Pa       0.00000000       0.00000000       0.00000000       0.00000000       0.00000000       0.61554247
Pa       0.00000000       0.00000000       4.58909091       0.00000000       0.00000000      -0.61554247
2
Properties=species:S:1:pos:R:3:forces:R:3 energy=-5.241920453110561 pbc="F F F"
Pa       0.00000000       0.00000000       0.00000000       0.00000000       0.00000000       0.54984963
Pa       0.00000000       0.00000000       4.64787879       0.00000000       0.00000000      -0.54984963
2
Properties=species:S:1:pos:R:3:forces:R:3 energy=-5.211445894680518 pbc="F F F"
Pa       0.00000000       0.00000000       0.00000000       0.00000000       0.00000000       0.48749313
Pa       0.00000000       0.00000000       4.70666667       0.00000000       0.00000000      -0.48749313
2
Properties=species:S:1:pos:R:3:forces:R:3 energy=-5.184527548600391 pbc="F F F"
Pa       0.00000000       0.00000000       0.00000000       0.00000000       0.00000000       0.42894211
Pa       0.00000000       0.00000000       4.76545455       0.00000000       0.00000000      -0.42894211
2
Properties=species:S:1:pos:R:3:forces:R:3 energy=-5.1609340805005 pbc="F F F"
Pa       0.00000000       0.00000000       0.00000000       0.00000000       0.00000000       0.37439013
Pa       0.00000000       0.00000000       4.82424242       0.00000000       0.00000000      -0.37439013
2
Properties=species:S:1:pos:R:3:forces:R:3 energy=-5.140426632658751 pbc="F F F"
Pa       0.00000000       0.00000000       0.00000000       0.00000000       0.00000000       0.32408634
Pa       0.00000000       0.00000000       4.88303030       0.00000000       0.00000000      -0.32408634
2
Properties=species:S:1:pos:R:3:forces:R:3 energy=-5.122737735459722 pbc="F F F"
Pa       0.00000000       0.00000000       0.00000000       0.00000000       0.00000000       0.27850285
Pa       0.00000000       0.00000000       4.94181818       0.00000000       0.00000000      -0.27850285
2
Properties=species:S:1:pos:R:3:forces:R:3 energy=-5.107572858283379 pbc="F F F"
Pa       0.00000000       0.00000000       0.00000000       0.00000000       0.00000000       0.23835227
Pa       0.00000000       0.00000000       5.00060606       0.00000000       0.00000000      -0.23835227
2
Properties=species:S:1:pos:R:3:forces:R:3 energy=-5.094592277021777 pbc="F F F"
Pa       0.00000000       0.00000000       0.00000000       0.00000000       0.00000000       0.20431682
Pa       0.00000000       0.00000000       5.05939394       0.00000000       0.00000000      -0.20431682
2
Properties=species:S:1:pos:R:3:forces:R:3 energy=-5.083422880966413 pbc="F F F"
Pa       0.00000000       0.00000000       0.00000000       0.00000000       0.00000000       0.17676599
Pa       0.00000000       0.00000000       5.11818182       0.00000000       0.00000000      -0.17676599
2
Properties=species:S:1:pos:R:3:forces:R:3 energy=-5.073685861041632 pbc="F F F"
Pa       0.00000000       0.00000000       0.00000000       0.00000000       0.00000000       0.15550329
Pa       0.00000000       0.00000000       5.17696970       0.00000000       0.00000000      -0.15550329
2
Properties=species:S:1:pos:R:3:forces:R:3 energy=-5.065032453584549 pbc="F F F"
Pa       0.00000000       0.00000000       0.00000000       0.00000000       0.00000000       0.13970555
Pa       0.00000000       0.00000000       5.23575758       0.00000000       0.00000000      -0.13970555
2
Properties=species:S:1:pos:R:3:forces:R:3 energy=-5.0571791122531655 pbc="F F F"
Pa       0.00000000       0.00000000       0.00000000       0.00000000       0.00000000       0.12805131
Pa       0.00000000       0.00000000       5.29454545       0.00000000       0.00000000      -0.12805131
2
Properties=species:S:1:pos:R:3:forces:R:3 energy=-5.049925665852248 pbc="F F F"
Pa       0.00000000       0.00000000       0.00000000       0.00000000       0.00000000       0.11900230
Pa       0.00000000       0.00000000       5.35333333       0.00000000       0.00000000      -0.11900230
2
Properties=species:S:1:pos:R:3:forces:R:3 energy=-5.043164169163065 pbc="F F F"
Pa       0.00000000       0.00000000       0.00000000       0.00000000       0.00000000       0.11109725
Pa       0.00000000       0.00000000       5.41212121       0.00000000       0.00000000      -0.11109725
2
Properties=species:S:1:pos:R:3:forces:R:3 energy=-5.036863211666684 pbc="F F F"
Pa       0.00000000       0.00000000       0.00000000       0.00000000       0.00000000       0.10320337
Pa       0.00000000       0.00000000       5.47090909       0.00000000       0.00000000      -0.10320337
2
Properties=species:S:1:pos:R:3:forces:R:3 energy=-5.0310434784716564 pbc="F F F"
Pa       0.00000000       0.00000000       0.00000000       0.00000000       0.00000000       0.09464978
Pa       0.00000000       0.00000000       5.52969697       0.00000000       0.00000000      -0.09464978
2
Properties=species:S:1:pos:R:3:forces:R:3 energy=-5.025751880730235 pbc="F F F"
Pa       0.00000000       0.00000000       0.00000000       0.00000000       0.00000000       0.08525008
Pa       0.00000000       0.00000000       5.58848485       0.00000000       0.00000000      -0.08525008
2
Properties=species:S:1:pos:R:3:forces:R:3 energy=-5.021032506585591 pbc="F F F"
Pa       0.00000000       0.00000000       0.00000000       0.00000000       0.00000000       0.07523447
Pa       0.00000000       0.00000000       5.64727273       0.00000000       0.00000000      -0.07523447
2
Properties=species:S:1:pos:R:3:forces:R:3 energy=-5.0169092206152754 pbc="F F F"
Pa       0.00000000       0.00000000       0.00000000       0.00000000       0.00000000       0.06510624
Pa       0.00000000       0.00000000       5.70606061       0.00000000       0.00000000      -0.06510624
2
Properties=species:S:1:pos:R:3:forces:R:3 energy=-5.0133651725047095 pbc="F F F"
Pa       0.00000000       0.00000000       0.00000000       0.00000000       0.00000000       0.05551201
Pa       0.00000000       0.00000000       5.76484848       0.00000000       0.00000000      -0.05551201
2
Properties=species:S:1:pos:R:3:forces:R:3 energy=-5.010357610677306 pbc="F F F"
Pa       0.00000000       0.00000000       0.00000000       0.00000000       0.00000000       0.04710039
Pa       0.00000000       0.00000000       5.82363636       0.00000000       0.00000000      -0.04710039
2
Properties=species:S:1:pos:R:3:forces:R:3 energy=-5.007795650009914 pbc="F F F"
Pa       0.00000000       0.00000000       0.00000000       0.00000000       0.00000000       0.04043413
Pa       0.00000000       0.00000000       5.88242424       0.00000000       0.00000000      -0.04043413
2
Properties=species:S:1:pos:R:3:forces:R:3 energy=-5.005560927886084 pbc="F F F"
Pa       0.00000000       0.00000000       0.00000000       0.00000000       0.00000000       0.03595376
Pa       0.00000000       0.00000000       5.94121212       0.00000000       0.00000000      -0.03595376
2
Properties=species:S:1:pos:R:3:forces:R:3 energy=-5.003518460576929 pbc="F F F"
Pa       0.00000000       0.00000000       0.00000000       0.00000000       0.00000000       0.03397926
Pa       0.00000000       0.00000000       6.00000000       0.00000000       0.00000000      -0.03397926
