2
Properties=species:S:1:pos:R:3:forces:R:3 energy=17877.976103949975 pbc="F F F"
Pb       0.00000000       0.00000000       0.00000000       0.00000000       0.00000000 -317631.93750000
Pb       0.00000000       0.00000000       0.18000000       0.00000000       0.00000000  317631.93750000
2
Properties=species:S:1:pos:R:3:forces:R:3 energy=6834.382353949977 pbc="F F F"
Pb       0.00000000       0.00000000       0.00000000       0.00000000       0.00000000 -103718.78125000
Pb       0.00000000       0.00000000       0.23878788       0.00000000       0.00000000  103718.78125000
2
Properties=species:S:1:pos:R:3:forces:R:3 energy=2950.1284476999767 pbc="F F F"
Pb       0.00000000       0.00000000       0.00000000       0.00000000       0.00000000  -39817.87109375
Pb       0.00000000       0.00000000       0.29757576       0.00000000       0.00000000   39817.87109375
2
Properties=species:S:1:pos:R:3:forces:R:3 energy=1388.2849418406017 pbc="F F F"
Pb       0.00000000       0.00000000       0.00000000       0.00000000       0.00000000  -16914.79101562
Pb       0.00000000       0.00000000       0.35636364       0.00000000       0.00000000   16914.79101562
2
Properties=species:S:1:pos:R:3:forces:R:3 energy=702.2324516062267 pbc="F F F"
Pb       0.00000000       0.00000000       0.00000000       0.00000000       0.00000000   -7736.97460938
Pb       0.00000000       0.00000000       0.41515152       0.00000000       0.00000000    7736.97460938
2
Properties=species:S:1:pos:R:3:forces:R:3 energy=379.707945997328 pbc="F F F"
Pb       0.00000000       0.00000000       0.00000000       0.00000000       0.00000000   -3760.66381836
Pb       0.00000000       0.00000000       0.47393939       0.00000000       0.00000000    3760.66381836
2
Properties=species:S:1:pos:R:3:forces:R:3 energy=219.15949935472585 pbc="F F F"
Pb       0.00000000       0.00000000       0.00000000       0.00000000       0.00000000   -1926.37756348
Pb       0.00000000       0.00000000       0.53272727       0.00000000       0.00000000    1926.37756348
2
Properties=species:S:1:pos:R:3:forces:R:3 energy=135.20843431025622 pbc="F F F"
Pb       0.00000000       0.00000000       0.00000000       0.00000000       0.00000000   -1031.67224121
Pb       0.00000000       0.00000000       0.59151515       0.00000000       0.00000000    1031.67224121
2
Properties=species:S:1:pos:R:3:forces:R:3 energy=89.52069783070398 pbc="F F F"
Pb       0.00000000       0.00000000       0.00000000       0.00000000       0.00000000    -571.01574707
Pb       0.00000000       0.00000000       0.65030303       0.00000000       0.00000000     571.01574707
2
Properties=species:S:1:pos:R:3:forces:R:3 energy=64.04502039115475 pbc="F F F"
Pb       0.00000000       0.00000000       0.00000000       0.00000000       0.00000000    -319.51882935
Pb       0.00000000       0.00000000       0.70909091       0.00000000       0.00000000     319.51882935
2
Properties=species:S:1:pos:R:3:forces:R:3 energy=49.9099649251903 pbc="F F F"
Pb       0.00000000       0.00000000       0.00000000       0.00000000       0.00000000    -174.18849182
Pb       0.00000000       0.00000000       0.76787879       0.00000000       0.00000000     174.18849182
2
Properties=species:S:1:pos:R:3:forces:R:3 energy=42.34987974260104 pbc="F F F"
Pb       0.00000000       0.00000000       0.00000000       0.00000000       0.00000000     -91.62418365
Pb       0.00000000       0.00000000       0.82666667       0.00000000       0.00000000      91.62418365
2
Properties=species:S:1:pos:R:3:forces:R:3 energy=38.310142205911774 pbc="F F F"
Pb       0.00000000       0.00000000       0.00000000       0.00000000       0.00000000     -50.80340576
Pb       0.00000000       0.00000000       0.88545455       0.00000000       0.00000000      50.80340576
2
Properties=species:S:1:pos:R:3:forces:R:3 energy=36.107883370274266 pbc="F F F"
Pb       0.00000000       0.00000000       0.00000000       0.00000000       0.00000000     -24.24144936
Pb       0.00000000       0.00000000       0.94424242       0.00000000       0.00000000      24.24144936
2
Properties=species:S:1:pos:R:3:forces:R:3 energy=35.255192030330214 pbc="F F F"
Pb       0.00000000       0.00000000       0.00000000       0.00000000       0.00000000     -10.02763557
Pb       0.00000000       0.00000000       1.00303030       0.00000000       0.00000000      10.02763557
2
Properties=species:S:1:pos:R:3:forces:R:3 energy=34.30687778490251 pbc="F F F"
Pb       0.00000000       0.00000000       0.00000000       0.00000000       0.00000000     -24.93315506
Pb       0.00000000       0.00000000       1.06181818       0.00000000       0.00000000      24.93315506
2
Properties=species:S:1:pos:R:3:forces:R:3 energy=32.25806929726118 pbc="F F F"
Pb       0.00000000       0.00000000       0.00000000       0.00000000       0.00000000     -44.25870132
Pb       0.00000000       0.00000000       1.12060606       0.00000000       0.00000000      44.25870132
2
Properties=species:S:1:pos:R:3:forces:R:3 energy=29.210069693334738 pbc="F F F"
Pb       0.00000000       0.00000000       0.00000000       0.00000000       0.00000000     -58.22253036
Pb       0.00000000       0.00000000       1.17939394       0.00000000       0.00000000      58.22253036
2
Properties=species:S:1:pos:R:3:forces:R:3 energy=25.577584303465414 pbc="F F F"
Pb       0.00000000       0.00000000       0.00000000       0.00000000       0.00000000     -63.87274551
Pb       0.00000000       0.00000000       1.23818182       0.00000000       0.00000000      63.87274551
2
Properties=species:S:1:pos:R:3:forces:R:3 energy=21.860712347795985 pbc="F F F"
Pb       0.00000000       0.00000000       0.00000000       0.00000000       0.00000000     -61.45603180
Pb       0.00000000       0.00000000       1.29696970       0.00000000       0.00000000      61.45603180
2
Properties=species:S:1:pos:R:3:forces:R:3 energy=18.44103043093665 pbc="F F F"
Pb       0.00000000       0.00000000       0.00000000       0.00000000       0.00000000     -54.50686264
Pb       0.00000000       0.00000000       1.35575758       0.00000000       0.00000000      54.50686264
2
Properties=species:S:1:pos:R:3:forces:R:3 energy=15.458013478682625 pbc="F F F"
Pb       0.00000000       0.00000000       0.00000000       0.00000000       0.00000000     -47.17221069
Pb       0.00000000       0.00000000       1.41454545       0.00000000       0.00000000      47.17221069
2
Properties=species:S:1:pos:R:3:forces:R:3 energy=12.859075977926286 pbc="F F F"
Pb       0.00000000       0.00000000       0.00000000       0.00000000       0.00000000     -41.57366562
Pb       0.00000000       0.00000000       1.47333333       0.00000000       0.00000000      41.57366562
2
Properties=species:S:1:pos:R:3:forces:R:3 energy=10.536852399647856 pbc="F F F"
Pb       0.00000000       0.00000000       0.00000000       0.00000000       0.00000000     -37.65427017
Pb       0.00000000       0.00000000       1.53212121       0.00000000       0.00000000      37.65427017
2
Properties=species:S:1:pos:R:3:forces:R:3 energy=8.41233093443903 pbc="F F F"
Pb       0.00000000       0.00000000       0.00000000       0.00000000       0.00000000     -34.72502136
Pb       0.00000000       0.00000000       1.59090909       0.00000000       0.00000000      34.72502136
2
Properties=species:S:1:pos:R:3:forces:R:3 energy=6.450673976730909 pbc="F F F"
Pb       0.00000000       0.00000000       0.00000000       0.00000000       0.00000000     -31.97154045
Pb       0.00000000       0.00000000       1.64969697       0.00000000       0.00000000      31.97154045
2
Properties=species:S:1:pos:R:3:forces:R:3 energy=4.663357225789159 pbc="F F F"
Pb       0.00000000       0.00000000       0.00000000       0.00000000       0.00000000     -28.72221565
Pb       0.00000000       0.00000000       1.70848485       0.00000000       0.00000000      28.72221565
2
Properties=species:S:1:pos:R:3:forces:R:3 energy=3.086421842345003 pbc="F F F"
Pb       0.00000000       0.00000000       0.00000000       0.00000000       0.00000000     -24.83772659
Pb       0.00000000       0.00000000       1.76727273       0.00000000       0.00000000      24.83772659
2
Properties=species:S:1:pos:R:3:forces:R:3 energy=1.748913337692061 pbc="F F F"
Pb       0.00000000       0.00000000       0.00000000       0.00000000       0.00000000     -20.65918350
Pb       0.00000000       0.00000000       1.82606061       0.00000000       0.00000000      20.65918350
2
Properties=species:S:1:pos:R:3:forces:R:3 energy=0.6528625287769808 pbc="F F F"
Pb       0.00000000       0.00000000       0.00000000       0.00000000       0.00000000     -16.70814705
Pb       0.00000000       0.00000000       1.88484848       0.00000000       0.00000000      16.70814705
2
Properties=species:S:1:pos:R:3:forces:R:3 energy=-0.22825683910610378 pbc="F F F"
Pb       0.00000000       0.00000000       0.00000000       0.00000000       0.00000000     -13.39554310
Pb       0.00000000       0.00000000       1.94363636       0.00000000       0.00000000      13.39554310
2
Properties=species:S:1:pos:R:3:forces:R:3 energy=-0.9376487072139282 pbc="F F F"
Pb       0.00000000       0.00000000       0.00000000       0.00000000       0.00000000     -10.86578083
Pb       0.00000000       0.00000000       2.00242424       0.00000000       0.00000000      10.86578083
2
Properties=species:S:1:pos:R:3:forces:R:3 energy=-1.518957733546697 pbc="F F F"
Pb       0.00000000       0.00000000       0.00000000       0.00000000       0.00000000      -9.00278854
Pb       0.00000000       0.00000000       2.06121212       0.00000000       0.00000000       9.00278854
2
Properties=species:S:1:pos:R:3:forces:R:3 energy=-2.004436653627053 pbc="F F F"
Pb       0.00000000       0.00000000       0.00000000       0.00000000       0.00000000      -7.56365633
Pb       0.00000000       0.00000000       2.12000000       0.00000000       0.00000000       7.56365633
2
Properties=species:S:1:pos:R:3:forces:R:3 energy=-2.4123289593525654 pbc="F F F"
Pb       0.00000000       0.00000000       0.00000000       0.00000000       0.00000000      -6.33598042
Pb       0.00000000       0.00000000       2.17878788       0.00000000       0.00000000       6.33598042
2
Properties=species:S:1:pos:R:3:forces:R:3 energy=-2.7513414901556317 pbc="F F F"
Pb       0.00000000       0.00000000       0.00000000       0.00000000       0.00000000      -5.21053934
Pb       0.00000000       0.00000000       2.23757576       0.00000000       0.00000000       5.21053934
2
Properties=species:S:1:pos:R:3:forces:R:3 energy=-3.026435165627451 pbc="F F F"
Pb       0.00000000       0.00000000       0.00000000       0.00000000       0.00000000      -4.16147757
Pb       0.00000000       0.00000000       2.29636364       0.00000000       0.00000000       4.16147757
2
Properties=species:S:1:pos:R:3:forces:R:3 energy=-3.242369435324237 pbc="F F F"
Pb       0.00000000       0.00000000       0.00000000       0.00000000       0.00000000      -3.20149732
Pb       0.00000000       0.00000000       2.35515152       0.00000000       0.00000000       3.20149732
2
Properties=species:S:1:pos:R:3:forces:R:3 energy=-3.405052945360406 pbc="F F F"
Pb       0.00000000       0.00000000       0.00000000       0.00000000       0.00000000      -2.35359073
Pb       0.00000000       0.00000000       2.41393939       0.00000000       0.00000000       2.35359073
2
Properties=species:S:1:pos:R:3:forces:R:3 energy=-3.52166826617149 pbc="F F F"
Pb       0.00000000       0.00000000       0.00000000       0.00000000       0.00000000      -1.63643432
Pb       0.00000000       0.00000000       2.47272727       0.00000000       0.00000000       1.63643432
2
Properties=species:S:1:pos:R:3:forces:R:3 energy=-3.6001242323666527 pbc="F F F"
Pb       0.00000000       0.00000000       0.00000000       0.00000000       0.00000000      -1.05476654
Pb       0.00000000       0.00000000       2.53151515       0.00000000       0.00000000       1.05476654
2
Properties=species:S:1:pos:R:3:forces:R:3 energy=-3.6481087532312513 pbc="F F F"
Pb       0.00000000       0.00000000       0.00000000       0.00000000       0.00000000      -0.59650475
Pb       0.00000000       0.00000000       2.59030303       0.00000000       0.00000000       0.59650475
2
Properties=species:S:1:pos:R:3:forces:R:3 energy=-3.672213005419212 pbc="F F F"
Pb       0.00000000       0.00000000       0.00000000       0.00000000       0.00000000      -0.23789485
Pb       0.00000000       0.00000000       2.64909091       0.00000000       0.00000000       0.23789485
2
Properties=species:S:1:pos:R:3:forces:R:3 energy=-3.677509089111313 pbc="F F F"
Pb       0.00000000       0.00000000       0.00000000       0.00000000       0.00000000       0.04758855
Pb       0.00000000       0.00000000       2.70787879       0.00000000       0.00000000      -0.04758855
2
Properties=species:S:1:pos:R:3:forces:R:3 energy=-3.667608576783416 pbc="F F F"
Pb       0.00000000       0.00000000       0.00000000       0.00000000       0.00000000       0.28227621
Pb       0.00000000       0.00000000       2.76666667       0.00000000       0.00000000      -0.28227621
2
Properties=species:S:1:pos:R:3:forces:R:3 energy=-3.6450120031652053 pbc="F F F"
Pb       0.00000000       0.00000000       0.00000000       0.00000000       0.00000000       0.48143378
Pb       0.00000000       0.00000000       2.82545455       0.00000000       0.00000000      -0.48143378
2
Properties=species:S:1:pos:R:3:forces:R:3 energy=-3.6115315203603995 pbc="F F F"
Pb       0.00000000       0.00000000       0.00000000       0.00000000       0.00000000       0.65343821
Pb       0.00000000       0.00000000       2.88424242       0.00000000       0.00000000      -0.65343821
2
Properties=species:S:1:pos:R:3:forces:R:3 energy=-3.568653586358539 pbc="F F F"
Pb       0.00000000       0.00000000       0.00000000       0.00000000       0.00000000       0.80137467
Pb       0.00000000       0.00000000       2.94303030       0.00000000       0.00000000      -0.80137467
2
Properties=species:S:1:pos:R:3:forces:R:3 energy=-3.5177828719132163 pbc="F F F"
Pb       0.00000000       0.00000000       0.00000000       0.00000000       0.00000000       0.92514288
Pb       0.00000000       0.00000000       3.00181818       0.00000000       0.00000000      -0.92514288
2
Properties=species:S:1:pos:R:3:forces:R:3 energy=-3.4603718420479197 pbc="F F F"
Pb       0.00000000       0.00000000       0.00000000       0.00000000       0.00000000       1.02378094
Pb       0.00000000       0.00000000       3.06060606       0.00000000       0.00000000      -1.02378094
2
Properties=species:S:1:pos:R:3:forces:R:3 energy=-3.3979002223962134 pbc="F F F"
Pb       0.00000000       0.00000000       0.00000000       0.00000000       0.00000000       1.09751558
Pb       0.00000000       0.00000000       3.11939394       0.00000000       0.00000000      -1.09751558
2
Properties=species:S:1:pos:R:3:forces:R:3 energy=-3.3317741863491617 pbc="F F F"
Pb       0.00000000       0.00000000       0.00000000       0.00000000       0.00000000       1.14866543
Pb       0.00000000       0.00000000       3.17818182       0.00000000       0.00000000      -1.14866543
2
Properties=species:S:1:pos:R:3:forces:R:3 energy=-3.263209484130742 pbc="F F F"
Pb       0.00000000       0.00000000       0.00000000       0.00000000       0.00000000       1.18122494
Pb       0.00000000       0.00000000       3.23696970       0.00000000       0.00000000      -1.18122494
2
Properties=species:S:1:pos:R:3:forces:R:3 energy=-3.193166524596378 pbc="F F F"
Pb       0.00000000       0.00000000       0.00000000       0.00000000       0.00000000       1.19970942
Pb       0.00000000       0.00000000       3.29575758       0.00000000       0.00000000      -1.19970942
2
Properties=species:S:1:pos:R:3:forces:R:3 energy=-3.122348327090659 pbc="F F F"
Pb       0.00000000       0.00000000       0.00000000       0.00000000       0.00000000       1.20823181
Pb       0.00000000       0.00000000       3.35454545       0.00000000       0.00000000      -1.20823181
2
Properties=species:S:1:pos:R:3:forces:R:3 energy=-3.051235746147827 pbc="F F F"
Pb       0.00000000       0.00000000       0.00000000       0.00000000       0.00000000       1.21021175
Pb       0.00000000       0.00000000       3.41333333       0.00000000       0.00000000      -1.21021175
2
Properties=species:S:1:pos:R:3:forces:R:3 energy=-2.980135060550984 pbc="F F F"
Pb       0.00000000       0.00000000       0.00000000       0.00000000       0.00000000       1.20811868
Pb       0.00000000       0.00000000       3.47212121       0.00000000       0.00000000      -1.20811868
2
Properties=species:S:1:pos:R:3:forces:R:3 energy=-2.90925406255325 pbc="F F F"
Pb       0.00000000       0.00000000       0.00000000       0.00000000       0.00000000       1.20269072
Pb       0.00000000       0.00000000       3.53090909       0.00000000       0.00000000      -1.20269072
2
Properties=species:S:1:pos:R:3:forces:R:3 energy=-2.838816213669551 pbc="F F F"
Pb       0.00000000       0.00000000       0.00000000       0.00000000       0.00000000       1.19273400
Pb       0.00000000       0.00000000       3.58969697       0.00000000       0.00000000      -1.19273400
2
Properties=species:S:1:pos:R:3:forces:R:3 energy=-2.7691419815474143 pbc="F F F"
Pb       0.00000000       0.00000000       0.00000000       0.00000000       0.00000000       1.17643690
Pb       0.00000000       0.00000000       3.64848485       0.00000000       0.00000000      -1.17643690
2
Properties=species:S:1:pos:R:3:forces:R:3 energy=-2.700641615061905 pbc="F F F"
Pb       0.00000000       0.00000000       0.00000000       0.00000000       0.00000000       1.15274560
Pb       0.00000000       0.00000000       3.70727273       0.00000000       0.00000000      -1.15274560
2
Properties=species:S:1:pos:R:3:forces:R:3 energy=-2.6337513124158067 pbc="F F F"
Pb       0.00000000       0.00000000       0.00000000       0.00000000       0.00000000       1.12170398
Pb       0.00000000       0.00000000       3.76606061       0.00000000       0.00000000      -1.12170398
2
Properties=species:S:1:pos:R:3:forces:R:3 energy=-2.5688841130519595 pbc="F F F"
Pb       0.00000000       0.00000000       0.00000000       0.00000000       0.00000000       1.08417082
Pb       0.00000000       0.00000000       3.82484848       0.00000000       0.00000000      -1.08417082
2
Properties=species:S:1:pos:R:3:forces:R:3 energy=-2.506381395901918 pbc="F F F"
Pb       0.00000000       0.00000000       0.00000000       0.00000000       0.00000000       1.04141402
Pb       0.00000000       0.00000000       3.88363636       0.00000000       0.00000000      -1.04141402
2
Properties=species:S:1:pos:R:3:forces:R:3 energy=-2.4465139702683922 pbc="F F F"
Pb       0.00000000       0.00000000       0.00000000       0.00000000       0.00000000       0.99482340
Pb       0.00000000       0.00000000       3.94242424       0.00000000       0.00000000      -0.99482340
2
Properties=species:S:1:pos:R:3:forces:R:3 energy=-2.3894643334962846 pbc="F F F"
Pb       0.00000000       0.00000000       0.00000000       0.00000000       0.00000000       0.94573319
Pb       0.00000000       0.00000000       4.00121212       0.00000000       0.00000000      -0.94573319
2
Properties=species:S:1:pos:R:3:forces:R:3 energy=-2.3353433654572577 pbc="F F F"
Pb       0.00000000       0.00000000       0.00000000       0.00000000       0.00000000       0.89535815
Pb       0.00000000       0.00000000       4.06000000       0.00000000       0.00000000      -0.89535815
2
Properties=species:S:1:pos:R:3:forces:R:3 energy=-2.284194543736725 pbc="F F F"
Pb       0.00000000       0.00000000       0.00000000       0.00000000       0.00000000       0.84484053
Pb       0.00000000       0.00000000       4.11878788       0.00000000       0.00000000      -0.84484053
2
Properties=species:S:1:pos:R:3:forces:R:3 energy=-2.2359919054127415 pbc="F F F"
Pb       0.00000000       0.00000000       0.00000000       0.00000000       0.00000000       0.79530501
Pb       0.00000000       0.00000000       4.17757576       0.00000000       0.00000000      -0.79530501
2
Properties=species:S:1:pos:R:3:forces:R:3 energy=-2.190643207358223 pbc="F F F"
Pb       0.00000000       0.00000000       0.00000000       0.00000000       0.00000000       0.74791825
Pb       0.00000000       0.00000000       4.23636364       0.00000000       0.00000000      -0.74791825
2
Properties=species:S:1:pos:R:3:forces:R:3 energy=-2.1479884497161232 pbc="F F F"
Pb       0.00000000       0.00000000       0.00000000       0.00000000       0.00000000       0.70383829
Pb       0.00000000       0.00000000       4.29515152       0.00000000       0.00000000      -0.70383829
2
Properties=species:S:1:pos:R:3:forces:R:3 energy=-2.107805269163899 pbc="F F F"
Pb       0.00000000       0.00000000       0.00000000       0.00000000       0.00000000       0.66405845
Pb       0.00000000       0.00000000       4.35393939       0.00000000       0.00000000      -0.66405845
2
Properties=species:S:1:pos:R:3:forces:R:3 energy=-2.069816138988214 pbc="F F F"
Pb       0.00000000       0.00000000       0.00000000       0.00000000       0.00000000       0.62916976
Pb       0.00000000       0.00000000       4.41272727       0.00000000       0.00000000      -0.62916976
2
Properties=species:S:1:pos:R:3:forces:R:3 energy=-2.0337329810377125 pbc="F F F"
Pb       0.00000000       0.00000000       0.00000000       0.00000000       0.00000000       0.59916723
Pb       0.00000000       0.00000000       4.47151515       0.00000000       0.00000000      -0.59916723
2
Properties=species:S:1:pos:R:3:forces:R:3 energy=-1.9992860238745571 pbc="F F F"
Pb       0.00000000       0.00000000       0.00000000       0.00000000       0.00000000       0.57333058
Pb       0.00000000       0.00000000       4.53030303       0.00000000       0.00000000      -0.57333058
2
Properties=species:S:1:pos:R:3:forces:R:3 energy=-1.966267536744584 pbc="F F F"
Pb       0.00000000       0.00000000       0.00000000       0.00000000       0.00000000       0.55034447
Pb       0.00000000       0.00000000       4.58909091       0.00000000       0.00000000      -0.55034447
2
Properties=species:S:1:pos:R:3:forces:R:3 energy=-1.9345554721984506 pbc="F F F"
Pb       0.00000000       0.00000000       0.00000000       0.00000000       0.00000000       0.52860612
Pb       0.00000000       0.00000000       4.64787879       0.00000000       0.00000000      -0.52860612
2
Properties=species:S:1:pos:R:3:forces:R:3 energy=-1.9041205414533255 pbc="F F F"
Pb       0.00000000       0.00000000       0.00000000       0.00000000       0.00000000       0.50664383
Pb       0.00000000       0.00000000       4.70666667       0.00000000       0.00000000      -0.50664383
2
Properties=species:S:1:pos:R:3:forces:R:3 energy=-1.8750085852572758 pbc="F F F"
Pb       0.00000000       0.00000000       0.00000000       0.00000000       0.00000000       0.48355979
Pb       0.00000000       0.00000000       4.76545455       0.00000000       0.00000000      -0.48355979
2
Properties=species:S:1:pos:R:3:forces:R:3 energy=-1.8472900564929444 pbc="F F F"
Pb       0.00000000       0.00000000       0.00000000       0.00000000       0.00000000       0.45923686
Pb       0.00000000       0.00000000       4.82424242       0.00000000       0.00000000      -0.45923686
2
Properties=species:S:1:pos:R:3:forces:R:3 energy=-1.8210259041459838 pbc="F F F"
Pb       0.00000000       0.00000000       0.00000000       0.00000000       0.00000000       0.43435493
Pb       0.00000000       0.00000000       4.88303030       0.00000000       0.00000000      -0.43435493
2
Properties=species:S:1:pos:R:3:forces:R:3 energy=-1.7962089338379335 pbc="F F F"
Pb       0.00000000       0.00000000       0.00000000       0.00000000       0.00000000       0.41008985
Pb       0.00000000       0.00000000       4.94181818       0.00000000       0.00000000      -0.41008985
2
Properties=species:S:1:pos:R:3:forces:R:3 energy=-1.7727701512611436 pbc="F F F"
Pb       0.00000000       0.00000000       0.00000000       0.00000000       0.00000000       0.38769072
Pb       0.00000000       0.00000000       5.00060606       0.00000000       0.00000000      -0.38769072
2
Properties=species:S:1:pos:R:3:forces:R:3 energy=-1.7505712920072685 pbc="F F F"
Pb       0.00000000       0.00000000       0.00000000       0.00000000       0.00000000       0.36801383
Pb       0.00000000       0.00000000       5.05939394       0.00000000       0.00000000      -0.36801383
2
Properties=species:S:1:pos:R:3:forces:R:3 energy=-1.7294439305497542 pbc="F F F"
Pb       0.00000000       0.00000000       0.00000000       0.00000000       0.00000000       0.35118762
Pb       0.00000000       0.00000000       5.11818182       0.00000000       0.00000000      -0.35118762
2
Properties=species:S:1:pos:R:3:forces:R:3 energy=-1.709238521195265 pbc="F F F"
Pb       0.00000000       0.00000000       0.00000000       0.00000000       0.00000000       0.33651659
Pb       0.00000000       0.00000000       5.17696970       0.00000000       0.00000000      -0.33651659
2
Properties=species:S:1:pos:R:3:forces:R:3 energy=-1.6898648041131556 pbc="F F F"
Pb       0.00000000       0.00000000       0.00000000       0.00000000       0.00000000       0.32260782
Pb       0.00000000       0.00000000       5.23575758       0.00000000       0.00000000      -0.32260782
2
Properties=species:S:1:pos:R:3:forces:R:3 energy=-1.6713287507117653 pbc="F F F"
Pb       0.00000000       0.00000000       0.00000000       0.00000000       0.00000000       0.30770665
Pb       0.00000000       0.00000000       5.29454545       0.00000000       0.00000000      -0.30770665
2
Properties=species:S:1:pos:R:3:forces:R:3 energy=-1.6537380377622717 pbc="F F F"
Pb       0.00000000       0.00000000       0.00000000       0.00000000       0.00000000       0.29012859
Pb       0.00000000       0.00000000       5.35333333       0.00000000       0.00000000      -0.29012859
2
Properties=species:S:1:pos:R:3:forces:R:3 energy=-1.637292053241259 pbc="F F F"
Pb       0.00000000       0.00000000       0.00000000       0.00000000       0.00000000       0.26862341
Pb       0.00000000       0.00000000       5.41212121       0.00000000       0.00000000      -0.26862341
2
Properties=species:S:1:pos:R:3:forces:R:3 energy=-1.6222413140711585 pbc="F F F"
Pb       0.00000000       0.00000000       0.00000000       0.00000000       0.00000000       0.24269271
Pb       0.00000000       0.00000000       5.47090909       0.00000000       0.00000000      -0.24269271
2
Properties=species:S:1:pos:R:3:forces:R:3 energy=-1.6088392200360717 pbc="F F F"
Pb       0.00000000       0.00000000       0.00000000       0.00000000       0.00000000       0.21260493
Pb       0.00000000       0.00000000       5.52969697       0.00000000       0.00000000      -0.21260493
2
Properties=species:S:1:pos:R:3:forces:R:3 energy=-1.5973051242445866 pbc="F F F"
Pb       0.00000000       0.00000000       0.00000000       0.00000000       0.00000000       0.17941053
Pb       0.00000000       0.00000000       5.58848485       0.00000000       0.00000000      -0.17941053
2
Properties=species:S:1:pos:R:3:forces:R:3 energy=-1.5877745448284337 pbc="F F F"
Pb       0.00000000       0.00000000       0.00000000       0.00000000       0.00000000       0.14473404
Pb       0.00000000       0.00000000       5.64727273       0.00000000       0.00000000      -0.14473404
2
Properties=species:S:1:pos:R:3:forces:R:3 energy=-1.580281452275545 pbc="F F F"
Pb       0.00000000       0.00000000       0.00000000       0.00000000       0.00000000       0.11053167
Pb       0.00000000       0.00000000       5.70606061       0.00000000       0.00000000      -0.11053167
2
Properties=species:S:1:pos:R:3:forces:R:3 energy=-1.5747243533872415 pbc="F F F"
Pb       0.00000000       0.00000000       0.00000000       0.00000000       0.00000000       0.07880321
Pb       0.00000000       0.00000000       5.76484848       0.00000000       0.00000000      -0.07880321
2
Properties=species:S:1:pos:R:3:forces:R:3 energy=-1.570923673712107 pbc="F F F"
Pb       0.00000000       0.00000000       0.00000000       0.00000000       0.00000000       0.05154437
Pb       0.00000000       0.00000000       5.82363636       0.00000000       0.00000000      -0.05154437
2
Properties=species:S:1:pos:R:3:forces:R:3 energy=-1.5685529341881395 pbc="F F F"
Pb       0.00000000       0.00000000       0.00000000       0.00000000       0.00000000       0.03038427
Pb       0.00000000       0.00000000       5.88242424       0.00000000       0.00000000      -0.03038427
2
Properties=species:S:1:pos:R:3:forces:R:3 energy=-1.5672048342708504 pbc="F F F"
Pb       0.00000000       0.00000000       0.00000000       0.00000000       0.00000000       0.01671513
Pb       0.00000000       0.00000000       5.94121212       0.00000000       0.00000000      -0.01671513
2
Properties=species:S:1:pos:R:3:forces:R:3 energy=-1.5664181326281246 pbc="F F F"
Pb       0.00000000       0.00000000       0.00000000       0.00000000       0.00000000       0.01160836
Pb       0.00000000       0.00000000       6.00000000       0.00000000       0.00000000      -0.01160836
