2
Properties=species:S:1:pos:R:3:forces:R:3 energy=21394.74667342862 pbc="F F F"
Pu       0.00000000       0.00000000       0.00000000       0.00000000       0.00000000 -387631.90625000
Pu       0.00000000       0.00000000       0.18000000       0.00000000       0.00000000  387631.90625000
2
Properties=species:S:1:pos:R:3:forces:R:3 energy=8003.134857022372 pbc="F F F"
Pu       0.00000000       0.00000000       0.00000000       0.00000000       0.00000000 -124586.75000000
Pu       0.00000000       0.00000000       0.23878788       0.00000000       0.00000000  124586.75000000
2
Properties=species:S:1:pos:R:3:forces:R:3 energy=3369.8453062411213 pbc="F F F"
Pu       0.00000000       0.00000000       0.00000000       0.00000000       0.00000000  -47038.08593750
Pu       0.00000000       0.00000000       0.29757576       0.00000000       0.00000000   47038.08593750
2
Properties=species:S:1:pos:R:3:forces:R:3 energy=1537.7144468661213 pbc="F F F"
Pu       0.00000000       0.00000000       0.00000000       0.00000000       0.00000000  -19662.24023438
Pu       0.00000000       0.00000000       0.35636364       0.00000000       0.00000000   19662.24023438
2
Properties=species:S:1:pos:R:3:forces:R:3 energy=745.2695616122152 pbc="F F F"
Pu       0.00000000       0.00000000       0.00000000       0.00000000       0.00000000   -8867.63281250
Pu       0.00000000       0.00000000       0.41515152       0.00000000       0.00000000    8867.63281250
2
Properties=species:S:1:pos:R:3:forces:R:3 energy=377.5481260716758 pbc="F F F"
Pu       0.00000000       0.00000000       0.00000000       0.00000000       0.00000000   -4261.34570312
Pu       0.00000000       0.00000000       0.47393939       0.00000000       0.00000000    4261.34570312
2
Properties=species:S:1:pos:R:3:forces:R:3 energy=196.3591459754724 pbc="F F F"
Pu       0.00000000       0.00000000       0.00000000       0.00000000       0.00000000   -2164.22265625
Pu       0.00000000       0.00000000       0.53272727       0.00000000       0.00000000    2164.22265625
2
Properties=species:S:1:pos:R:3:forces:R:3 energy=102.29451738706945 pbc="F F F"
Pu       0.00000000       0.00000000       0.00000000       0.00000000       0.00000000   -1153.05847168
Pu       0.00000000       0.00000000       0.59151515       0.00000000       0.00000000    1153.05847168
2
Properties=species:S:1:pos:R:3:forces:R:3 energy=51.231002696603724 pbc="F F F"
Pu       0.00000000       0.00000000       0.00000000       0.00000000       0.00000000    -639.56524658
Pu       0.00000000       0.00000000       0.65030303       0.00000000       0.00000000     639.56524658
2
Properties=species:S:1:pos:R:3:forces:R:3 energy=22.46737281495187 pbc="F F F"
Pu       0.00000000       0.00000000       0.00000000       0.00000000       0.00000000    -366.56970215
Pu       0.00000000       0.00000000       0.70909091       0.00000000       0.00000000     366.56970215
2
Properties=species:S:1:pos:R:3:forces:R:3 energy=5.77392384525128 pbc="F F F"
Pu       0.00000000       0.00000000       0.00000000       0.00000000       0.00000000    -215.75564575
Pu       0.00000000       0.00000000       0.76787879       0.00000000       0.00000000     215.75564575
2
Properties=species:S:1:pos:R:3:forces:R:3 energy=-4.157907444919914 pbc="F F F"
Pu       0.00000000       0.00000000       0.00000000       0.00000000       0.00000000    -129.99676514
Pu       0.00000000       0.00000000       0.82666667       0.00000000       0.00000000     129.99676514
2
Properties=species:S:1:pos:R:3:forces:R:3 energy=-10.210038996381636 pbc="F F F"
Pu       0.00000000       0.00000000       0.00000000       0.00000000       0.00000000     -80.35514069
Pu       0.00000000       0.00000000       0.88545455       0.00000000       0.00000000      80.35514069
2
Properties=species:S:1:pos:R:3:forces:R:3 energy=-14.006154725905958 pbc="F F F"
Pu       0.00000000       0.00000000       0.00000000       0.00000000       0.00000000     -51.35551834
Pu       0.00000000       0.00000000       0.94424242       0.00000000       0.00000000      51.35551834
2
Properties=species:S:1:pos:R:3:forces:R:3 energy=-16.477387897420908 pbc="F F F"
Pu       0.00000000       0.00000000       0.00000000       0.00000000       0.00000000     -34.16316605
Pu       0.00000000       0.00000000       1.00303030       0.00000000       0.00000000      34.16316605
2
Properties=species:S:1:pos:R:3:forces:R:3 energy=-18.14912911691955 pbc="F F F"
Pu       0.00000000       0.00000000       0.00000000       0.00000000       0.00000000     -23.48583412
Pu       0.00000000       0.00000000       1.06181818       0.00000000       0.00000000      23.48583412
2
Properties=species:S:1:pos:R:3:forces:R:3 energy=-19.306029168007257 pbc="F F F"
Pu       0.00000000       0.00000000       0.00000000       0.00000000       0.00000000     -16.29476929
Pu       0.00000000       0.00000000       1.12060606       0.00000000       0.00000000      16.29476929
2
Properties=species:S:1:pos:R:3:forces:R:3 energy=-20.104601239452784 pbc="F F F"
Pu       0.00000000       0.00000000       0.00000000       0.00000000       0.00000000     -11.15313339
Pu       0.00000000       0.00000000       1.17939394       0.00000000       0.00000000      11.15313339
2
Properties=species:S:1:pos:R:3:forces:R:3 energy=-20.646428799419798 pbc="F F F"
Pu       0.00000000       0.00000000       0.00000000       0.00000000       0.00000000      -7.50047302
Pu       0.00000000       0.00000000       1.23818182       0.00000000       0.00000000       7.50047302
2
Properties=species:S:1:pos:R:3:forces:R:3 energy=-21.009179039886916 pbc="F F F"
Pu       0.00000000       0.00000000       0.00000000       0.00000000       0.00000000      -5.00361443
Pu       0.00000000       0.00000000       1.29696970       0.00000000       0.00000000       5.00361443
2
Properties=species:S:1:pos:R:3:forces:R:3 energy=-21.250198266834413 pbc="F F F"
Pu       0.00000000       0.00000000       0.00000000       0.00000000       0.00000000      -3.29733706
Pu       0.00000000       0.00000000       1.35575758       0.00000000       0.00000000       3.29733706
2
Properties=species:S:1:pos:R:3:forces:R:3 energy=-21.406086561499105 pbc="F F F"
Pu       0.00000000       0.00000000       0.00000000       0.00000000       0.00000000      -2.06888199
Pu       0.00000000       0.00000000       1.41454545       0.00000000       0.00000000       2.06888199
2
Properties=species:S:1:pos:R:3:forces:R:3 energy=-21.500262299709515 pbc="F F F"
Pu       0.00000000       0.00000000       0.00000000       0.00000000       0.00000000      -1.19299197
Pu       0.00000000       0.00000000       1.47333333       0.00000000       0.00000000       1.19299197
2
Properties=species:S:1:pos:R:3:forces:R:3 energy=-21.55337246705939 pbc="F F F"
Pu       0.00000000       0.00000000       0.00000000       0.00000000       0.00000000      -0.67329347
Pu       0.00000000       0.00000000       1.53212121       0.00000000       0.00000000       0.67329347
2
Properties=species:S:1:pos:R:3:forces:R:3 energy=-21.585751256637987 pbc="F F F"
Pu       0.00000000       0.00000000       0.00000000       0.00000000       0.00000000      -0.47255731
Pu       0.00000000       0.00000000       1.59090909       0.00000000       0.00000000       0.47255731
2
Properties=species:S:1:pos:R:3:forces:R:3 energy=-21.612581068527838 pbc="F F F"
Pu       0.00000000       0.00000000       0.00000000       0.00000000       0.00000000      -0.45662177
Pu       0.00000000       0.00000000       1.64969697       0.00000000       0.00000000       0.45662177
2
Properties=species:S:1:pos:R:3:forces:R:3 energy=-21.63967735168958 pbc="F F F"
Pu       0.00000000       0.00000000       0.00000000       0.00000000       0.00000000      -0.45430809
Pu       0.00000000       0.00000000       1.70848485       0.00000000       0.00000000       0.45430809
2
Properties=species:S:1:pos:R:3:forces:R:3 energy=-21.66366208398856 pbc="F F F"
Pu       0.00000000       0.00000000       0.00000000       0.00000000       0.00000000      -0.33726639
Pu       0.00000000       0.00000000       1.76727273       0.00000000       0.00000000       0.33726639
2
Properties=species:S:1:pos:R:3:forces:R:3 energy=-21.67705643739391 pbc="F F F"
Pu       0.00000000       0.00000000       0.00000000       0.00000000       0.00000000      -0.11220217
Pu       0.00000000       0.00000000       1.82606061       0.00000000       0.00000000       0.11220217
2
Properties=species:S:1:pos:R:3:forces:R:3 energy=-21.6788436873784 pbc="F F F"
Pu       0.00000000       0.00000000       0.00000000       0.00000000       0.00000000       0.01073545
Pu       0.00000000       0.00000000       1.88484848       0.00000000       0.00000000      -0.01073545
2
Properties=species:S:1:pos:R:3:forces:R:3 energy=-21.681879224343003 pbc="F F F"
Pu       0.00000000       0.00000000       0.00000000       0.00000000       0.00000000      -0.16272494
Pu       0.00000000       0.00000000       1.94363636       0.00000000       0.00000000       0.16272494
2
Properties=species:S:1:pos:R:3:forces:R:3 energy=-21.7013949824139 pbc="F F F"
Pu       0.00000000       0.00000000       0.00000000       0.00000000       0.00000000      -0.50740904
Pu       0.00000000       0.00000000       2.00242424       0.00000000       0.00000000       0.50740904
2
Properties=species:S:1:pos:R:3:forces:R:3 energy=-21.74019462469715 pbc="F F F"
Pu       0.00000000       0.00000000       0.00000000       0.00000000       0.00000000      -0.78976029
Pu       0.00000000       0.00000000       2.06121212       0.00000000       0.00000000       0.78976029
2
Properties=species:S:1:pos:R:3:forces:R:3 energy=-21.791165439064738 pbc="F F F"
Pu       0.00000000       0.00000000       0.00000000       0.00000000       0.00000000      -0.91812062
Pu       0.00000000       0.00000000       2.12000000       0.00000000       0.00000000       0.91812062
2
Properties=species:S:1:pos:R:3:forces:R:3 energy=-21.84542284352955 pbc="F F F"
Pu       0.00000000       0.00000000       0.00000000       0.00000000       0.00000000      -0.90840089
Pu       0.00000000       0.00000000       2.17878788       0.00000000       0.00000000       0.90840089
2
Properties=species:S:1:pos:R:3:forces:R:3 energy=-21.896184109948344 pbc="F F F"
Pu       0.00000000       0.00000000       0.00000000       0.00000000       0.00000000      -0.80728626
Pu       0.00000000       0.00000000       2.23757576       0.00000000       0.00000000       0.80728626
2
Properties=species:S:1:pos:R:3:forces:R:3 energy=-21.939422635287915 pbc="F F F"
Pu       0.00000000       0.00000000       0.00000000       0.00000000       0.00000000      -0.65904033
Pu       0.00000000       0.00000000       2.29636364       0.00000000       0.00000000       0.65904033
2
Properties=species:S:1:pos:R:3:forces:R:3 energy=-21.9734274517969 pbc="F F F"
Pu       0.00000000       0.00000000       0.00000000       0.00000000       0.00000000      -0.49804905
Pu       0.00000000       0.00000000       2.35515152       0.00000000       0.00000000       0.49804905
2
Properties=species:S:1:pos:R:3:forces:R:3 energy=-21.998240400767983 pbc="F F F"
Pu       0.00000000       0.00000000       0.00000000       0.00000000       0.00000000      -0.35011590
Pu       0.00000000       0.00000000       2.41393939       0.00000000       0.00000000       0.35011590
2
Properties=species:S:1:pos:R:3:forces:R:3 energy=-22.015215946820586 pbc="F F F"
Pu       0.00000000       0.00000000       0.00000000       0.00000000       0.00000000      -0.23378694
Pu       0.00000000       0.00000000       2.47272727       0.00000000       0.00000000       0.23378694
2
Properties=species:S:1:pos:R:3:forces:R:3 energy=-22.026566823445034 pbc="F F F"
Pu       0.00000000       0.00000000       0.00000000       0.00000000       0.00000000      -0.15996566
Pu       0.00000000       0.00000000       2.53151515       0.00000000       0.00000000       0.15996566
2
Properties=species:S:1:pos:R:3:forces:R:3 energy=-22.034916636043242 pbc="F F F"
Pu       0.00000000       0.00000000       0.00000000       0.00000000       0.00000000      -0.13150606
Pu       0.00000000       0.00000000       2.59030303       0.00000000       0.00000000       0.13150606
2
Properties=species:S:1:pos:R:3:forces:R:3 energy=-22.042834120401874 pbc="F F F"
Pu       0.00000000       0.00000000       0.00000000       0.00000000       0.00000000      -0.14387837
Pu       0.00000000       0.00000000       2.64909091       0.00000000       0.00000000       0.14387837
2
Properties=species:S:1:pos:R:3:forces:R:3 energy=-22.05243131935961 pbc="F F F"
Pu       0.00000000       0.00000000       0.00000000       0.00000000       0.00000000      -0.18655099
Pu       0.00000000       0.00000000       2.70787879       0.00000000       0.00000000       0.18655099
2
Properties=species:S:1:pos:R:3:forces:R:3 energy=-22.06507223997528 pbc="F F F"
Pu       0.00000000       0.00000000       0.00000000       0.00000000       0.00000000      -0.24470086
Pu       0.00000000       0.00000000       2.76666667       0.00000000       0.00000000       0.24470086
2
Properties=species:S:1:pos:R:3:forces:R:3 energy=-22.081173063430395 pbc="F F F"
Pu       0.00000000       0.00000000       0.00000000       0.00000000       0.00000000      -0.30145037
Pu       0.00000000       0.00000000       2.82545455       0.00000000       0.00000000       0.30145037
2
Properties=species:S:1:pos:R:3:forces:R:3 energy=-22.100172647489753 pbc="F F F"
Pu       0.00000000       0.00000000       0.00000000       0.00000000       0.00000000      -0.34089836
Pu       0.00000000       0.00000000       2.88424242       0.00000000       0.00000000       0.34089836
2
Properties=species:S:1:pos:R:3:forces:R:3 energy=-22.120690063169654 pbc="F F F"
Pu       0.00000000       0.00000000       0.00000000       0.00000000       0.00000000      -0.35177639
Pu       0.00000000       0.00000000       2.94303030       0.00000000       0.00000000       0.35177639
2
Properties=species:S:1:pos:R:3:forces:R:3 energy=-22.14089607123522 pbc="F F F"
Pu       0.00000000       0.00000000       0.00000000       0.00000000       0.00000000      -0.33044910
Pu       0.00000000       0.00000000       3.00181818       0.00000000       0.00000000       0.33044910
2
Properties=species:S:1:pos:R:3:forces:R:3 energy=-22.15900160587129 pbc="F F F"
Pu       0.00000000       0.00000000       0.00000000       0.00000000       0.00000000      -0.28169060
Pu       0.00000000       0.00000000       3.06060606       0.00000000       0.00000000       0.28169060
2
Properties=species:S:1:pos:R:3:forces:R:3 energy=-22.173689614438008 pbc="F F F"
Pu       0.00000000       0.00000000       0.00000000       0.00000000       0.00000000      -0.21630166
Pu       0.00000000       0.00000000       3.11939394       0.00000000       0.00000000       0.21630166
2
Properties=species:S:1:pos:R:3:forces:R:3 energy=-22.18434931858846 pbc="F F F"
Pu       0.00000000       0.00000000       0.00000000       0.00000000       0.00000000      -0.14656787
Pu       0.00000000       0.00000000       3.17818182       0.00000000       0.00000000       0.14656787
2
Properties=species:S:1:pos:R:3:forces:R:3 energy=-22.191025709912335 pbc="F F F"
Pu       0.00000000       0.00000000       0.00000000       0.00000000       0.00000000      -0.08192884
Pu       0.00000000       0.00000000       3.23696970       0.00000000       0.00000000       0.08192884
2
Properties=species:S:1:pos:R:3:forces:R:3 energy=-22.194173184220993 pbc="F F F"
Pu       0.00000000       0.00000000       0.00000000       0.00000000       0.00000000      -0.02680531
Pu       0.00000000       0.00000000       3.29575758       0.00000000       0.00000000       0.02680531
2
Properties=species:S:1:pos:R:3:forces:R:3 energy=-22.194360224668124 pbc="F F F"
Pu       0.00000000       0.00000000       0.00000000       0.00000000       0.00000000       0.01908103
Pu       0.00000000       0.00000000       3.35454545       0.00000000       0.00000000      -0.01908103
2
Properties=species:S:1:pos:R:3:forces:R:3 energy=-22.192048478442153 pbc="F F F"
Pu       0.00000000       0.00000000       0.00000000       0.00000000       0.00000000       0.05886522
Pu       0.00000000       0.00000000       3.41333333       0.00000000       0.00000000      -0.05886522
2
Properties=species:S:1:pos:R:3:forces:R:3 energy=-22.187483570654994 pbc="F F F"
Pu       0.00000000       0.00000000       0.00000000       0.00000000       0.00000000       0.09637829
Pu       0.00000000       0.00000000       3.47212121       0.00000000       0.00000000      -0.09637829
2
Properties=species:S:1:pos:R:3:forces:R:3 energy=-22.180700827085687 pbc="F F F"
Pu       0.00000000       0.00000000       0.00000000       0.00000000       0.00000000       0.13471748
Pu       0.00000000       0.00000000       3.53090909       0.00000000       0.00000000      -0.13471748
2
Properties=species:S:1:pos:R:3:forces:R:3 energy=-22.17158363299252 pbc="F F F"
Pu       0.00000000       0.00000000       0.00000000       0.00000000       0.00000000       0.17609140
Pu       0.00000000       0.00000000       3.58969697       0.00000000       0.00000000      -0.17609140
2
Properties=species:S:1:pos:R:3:forces:R:3 energy=-22.15990064360283 pbc="F F F"
Pu       0.00000000       0.00000000       0.00000000       0.00000000       0.00000000       0.22234702
Pu       0.00000000       0.00000000       3.64848485       0.00000000       0.00000000      -0.22234702
2
Properties=species:S:1:pos:R:3:forces:R:3 energy=-22.14533597842861 pbc="F F F"
Pu       0.00000000       0.00000000       0.00000000       0.00000000       0.00000000       0.27379274
Pu       0.00000000       0.00000000       3.70727273       0.00000000       0.00000000      -0.27379274
2
Properties=species:S:1:pos:R:3:forces:R:3 energy=-22.127701336836054 pbc="F F F"
Pu       0.00000000       0.00000000       0.00000000       0.00000000       0.00000000       0.32539514
Pu       0.00000000       0.00000000       3.76606061       0.00000000       0.00000000      -0.32539514
2
Properties=species:S:1:pos:R:3:forces:R:3 energy=-22.107294973936156 pbc="F F F"
Pu       0.00000000       0.00000000       0.00000000       0.00000000       0.00000000       0.36595854
Pu       0.00000000       0.00000000       3.82484848       0.00000000       0.00000000      -0.36595854
2
Properties=species:S:1:pos:R:3:forces:R:3 energy=-22.08510037380484 pbc="F F F"
Pu       0.00000000       0.00000000       0.00000000       0.00000000       0.00000000       0.38501960
Pu       0.00000000       0.00000000       3.88363636       0.00000000       0.00000000      -0.38501960
2
Properties=species:S:1:pos:R:3:forces:R:3 energy=-22.062502070201944 pbc="F F F"
Pu       0.00000000       0.00000000       0.00000000       0.00000000       0.00000000       0.38003671
Pu       0.00000000       0.00000000       3.94242424       0.00000000       0.00000000      -0.38003671
2
Properties=species:S:1:pos:R:3:forces:R:3 energy=-22.040789190307667 pbc="F F F"
Pu       0.00000000       0.00000000       0.00000000       0.00000000       0.00000000       0.35614854
Pu       0.00000000       0.00000000       4.00121212       0.00000000       0.00000000      -0.35614854
2
Properties=species:S:1:pos:R:3:forces:R:3 energy=-22.020834468661878 pbc="F F F"
Pu       0.00000000       0.00000000       0.00000000       0.00000000       0.00000000       0.32164788
Pu       0.00000000       0.00000000       4.06000000       0.00000000       0.00000000      -0.32164788
2
Properties=species:S:1:pos:R:3:forces:R:3 energy=-22.00302236416439 pbc="F F F"
Pu       0.00000000       0.00000000       0.00000000       0.00000000       0.00000000       0.28450617
Pu       0.00000000       0.00000000       4.11878788       0.00000000       0.00000000      -0.28450617
2
Properties=species:S:1:pos:R:3:forces:R:3 energy=-21.98731159608117 pbc="F F F"
Pu       0.00000000       0.00000000       0.00000000       0.00000000       0.00000000       0.25101215
Pu       0.00000000       0.00000000       4.17757576       0.00000000       0.00000000      -0.25101215
2
Properties=species:S:1:pos:R:3:forces:R:3 energy=-21.973349938101528 pbc="F F F"
Pu       0.00000000       0.00000000       0.00000000       0.00000000       0.00000000       0.22554976
Pu       0.00000000       0.00000000       4.23636364       0.00000000       0.00000000      -0.22554976
2
Properties=species:S:1:pos:R:3:forces:R:3 energy=-21.960582589970194 pbc="F F F"
Pu       0.00000000       0.00000000       0.00000000       0.00000000       0.00000000       0.21071306
Pu       0.00000000       0.00000000       4.29515152       0.00000000       0.00000000      -0.21071306
2
Properties=species:S:1:pos:R:3:forces:R:3 energy=-21.948347174894018 pbc="F F F"
Pu       0.00000000       0.00000000       0.00000000       0.00000000       0.00000000       0.20748509
Pu       0.00000000       0.00000000       4.35393939       0.00000000       0.00000000      -0.20748509
2
Properties=species:S:1:pos:R:3:forces:R:3 energy=-21.935967768873823 pbc="F F F"
Pu       0.00000000       0.00000000       0.00000000       0.00000000       0.00000000       0.21543169
Pu       0.00000000       0.00000000       4.41272727       0.00000000       0.00000000      -0.21543169
2
Properties=species:S:1:pos:R:3:forces:R:3 energy=-21.922829945888434 pbc="F F F"
Pu       0.00000000       0.00000000       0.00000000       0.00000000       0.00000000       0.23290828
Pu       0.00000000       0.00000000       4.47151515       0.00000000       0.00000000      -0.23290828
2
Properties=species:S:1:pos:R:3:forces:R:3 energy=-21.908446875870094 pbc="F F F"
Pu       0.00000000       0.00000000       0.00000000       0.00000000       0.00000000       0.25729126
Pu       0.00000000       0.00000000       4.53030303       0.00000000       0.00000000      -0.25729126
2
Properties=species:S:1:pos:R:3:forces:R:3 energy=-21.89250908683132 pbc="F F F"
Pu       0.00000000       0.00000000       0.00000000       0.00000000       0.00000000       0.28523889
Pu       0.00000000       0.00000000       4.58909091       0.00000000       0.00000000      -0.28523889
2
Properties=species:S:1:pos:R:3:forces:R:3 energy=-21.874913385540967 pbc="F F F"
Pu       0.00000000       0.00000000       0.00000000       0.00000000       0.00000000       0.31302297
Pu       0.00000000       0.00000000       4.64787879       0.00000000       0.00000000      -0.31302297
2
Properties=species:S:1:pos:R:3:forces:R:3 energy=-21.855780131367876 pbc="F F F"
Pu       0.00000000       0.00000000       0.00000000       0.00000000       0.00000000       0.33693427
Pu       0.00000000       0.00000000       4.70666667       0.00000000       0.00000000      -0.33693427
2
Properties=species:S:1:pos:R:3:forces:R:3 energy=-21.83543797115616 pbc="F F F"
Pu       0.00000000       0.00000000       0.00000000       0.00000000       0.00000000       0.35378429
Pu       0.00000000       0.00000000       4.76545455       0.00000000       0.00000000      -0.35378429
2
Properties=species:S:1:pos:R:3:forces:R:3 energy=-21.81436483179485 pbc="F F F"
Pu       0.00000000       0.00000000       0.00000000       0.00000000       0.00000000       0.36141866
Pu       0.00000000       0.00000000       4.82424242       0.00000000       0.00000000      -0.36141866
2
Properties=species:S:1:pos:R:3:forces:R:3 energy=-21.79314021115947 pbc="F F F"
Pu       0.00000000       0.00000000       0.00000000       0.00000000       0.00000000       0.35910839
Pu       0.00000000       0.00000000       4.88303030       0.00000000       0.00000000      -0.35910839
2
Properties=species:S:1:pos:R:3:forces:R:3 energy=-21.77232308245698 pbc="F F F"
Pu       0.00000000       0.00000000       0.00000000       0.00000000       0.00000000       0.34766787
Pu       0.00000000       0.00000000       4.94181818       0.00000000       0.00000000      -0.34766787
2
Properties=species:S:1:pos:R:3:forces:R:3 energy=-21.75239855815612 pbc="F F F"
Pu       0.00000000       0.00000000       0.00000000       0.00000000       0.00000000       0.32919508
Pu       0.00000000       0.00000000       5.00060606       0.00000000       0.00000000      -0.32919508
2
Properties=species:S:1:pos:R:3:forces:R:3 energy=-21.733699733043018 pbc="F F F"
Pu       0.00000000       0.00000000       0.00000000       0.00000000       0.00000000       0.30650774
Pu       0.00000000       0.00000000       5.05939394       0.00000000       0.00000000      -0.30650774
2
Properties=species:S:1:pos:R:3:forces:R:3 energy=-21.716388446008065 pbc="F F F"
Pu       0.00000000       0.00000000       0.00000000       0.00000000       0.00000000       0.28240034
Pu       0.00000000       0.00000000       5.11818182       0.00000000       0.00000000      -0.28240034
2
Properties=species:S:1:pos:R:3:forces:R:3 energy=-21.700482122310973 pbc="F F F"
Pu       0.00000000       0.00000000       0.00000000       0.00000000       0.00000000       0.25903484
Pu       0.00000000       0.00000000       5.17696970       0.00000000       0.00000000      -0.25903484
2
Properties=species:S:1:pos:R:3:forces:R:3 energy=-21.68589555785265 pbc="F F F"
Pu       0.00000000       0.00000000       0.00000000       0.00000000       0.00000000       0.23757997
Pu       0.00000000       0.00000000       5.23575758       0.00000000       0.00000000      -0.23757997
2
Properties=species:S:1:pos:R:3:forces:R:3 energy=-21.67250776507637 pbc="F F F"
Pu       0.00000000       0.00000000       0.00000000       0.00000000       0.00000000       0.21820302
Pu       0.00000000       0.00000000       5.29454545       0.00000000       0.00000000      -0.21820302
2
Properties=species:S:1:pos:R:3:forces:R:3 energy=-21.660209542642004 pbc="F F F"
Pu       0.00000000       0.00000000       0.00000000       0.00000000       0.00000000       0.20032452
Pu       0.00000000       0.00000000       5.35333333       0.00000000       0.00000000      -0.20032452
2
Properties=species:S:1:pos:R:3:forces:R:3 energy=-21.64894341570569 pbc="F F F"
Pu       0.00000000       0.00000000       0.00000000       0.00000000       0.00000000       0.18301418
Pu       0.00000000       0.00000000       5.41212121       0.00000000       0.00000000      -0.18301418
2
Properties=species:S:1:pos:R:3:forces:R:3 energy=-21.638697939216538 pbc="F F F"
Pu       0.00000000       0.00000000       0.00000000       0.00000000       0.00000000       0.16540676
Pu       0.00000000       0.00000000       5.47090909       0.00000000       0.00000000      -0.16540676
2
Properties=species:S:1:pos:R:3:forces:R:3 energy=-21.629511392236626 pbc="F F F"
Pu       0.00000000       0.00000000       0.00000000       0.00000000       0.00000000       0.14696535
Pu       0.00000000       0.00000000       5.52969697       0.00000000       0.00000000      -0.14696535
2
Properties=species:S:1:pos:R:3:forces:R:3 energy=-21.621435512974433 pbc="F F F"
Pu       0.00000000       0.00000000       0.00000000       0.00000000       0.00000000       0.12765218
Pu       0.00000000       0.00000000       5.58848485       0.00000000       0.00000000      -0.12765218
2
Properties=species:S:1:pos:R:3:forces:R:3 energy=-21.614510576539693 pbc="F F F"
Pu       0.00000000       0.00000000       0.00000000       0.00000000       0.00000000       0.10791034
Pu       0.00000000       0.00000000       5.64727273       0.00000000       0.00000000      -0.10791034
2
Properties=species:S:1:pos:R:3:forces:R:3 energy=-21.608742430732093 pbc="F F F"
Pu       0.00000000       0.00000000       0.00000000       0.00000000       0.00000000       0.08857517
Pu       0.00000000       0.00000000       5.70606061       0.00000000       0.00000000      -0.08857517
2
Properties=species:S:1:pos:R:3:forces:R:3 energy=-21.60406620573209 pbc="F F F"
Pu       0.00000000       0.00000000       0.00000000       0.00000000       0.00000000       0.07063574
Pu       0.00000000       0.00000000       5.76484848       0.00000000       0.00000000      -0.07063574
2
Properties=species:S:1:pos:R:3:forces:R:3 energy=-21.60038447374484 pbc="F F F"
Pu       0.00000000       0.00000000       0.00000000       0.00000000       0.00000000       0.05517942
Pu       0.00000000       0.00000000       5.82363636       0.00000000       0.00000000      -0.05517942
2
Properties=species:S:1:pos:R:3:forces:R:3 energy=-21.597515554182163 pbc="F F F"
Pu       0.00000000       0.00000000       0.00000000       0.00000000       0.00000000       0.04312670
Pu       0.00000000       0.00000000       5.88242424       0.00000000       0.00000000      -0.04312670
2
Properties=species:S:1:pos:R:3:forces:R:3 energy=-21.595231673306476 pbc="F F F"
Pu       0.00000000       0.00000000       0.00000000       0.00000000       0.00000000       0.03525577
Pu       0.00000000       0.00000000       5.94121212       0.00000000       0.00000000      -0.03525577
2
Properties=species:S:1:pos:R:3:forces:R:3 energy=-21.593276130368487 pbc="F F F"
Pu       0.00000000       0.00000000       0.00000000       0.00000000       0.00000000       0.03215090
Pu       0.00000000       0.00000000       6.00000000       0.00000000       0.00000000      -0.03215090
