2
Properties=species:S:1:pos:R:3:forces:R:3 energy=9388.042441763573 pbc="F F F"
Sb       0.00000000       0.00000000       0.00000000       0.00000000       0.00000000 -156614.20312500
Sb       0.00000000       0.00000000       0.18000000       0.00000000       0.00000000  156614.20312500
2
Properties=species:S:1:pos:R:3:forces:R:3 energy=3830.485068716698 pbc="F F F"
Sb       0.00000000       0.00000000       0.00000000       0.00000000       0.00000000  -53752.27734375
Sb       0.00000000       0.00000000       0.23878788       0.00000000       0.00000000   53752.27734375
2
Properties=species:S:1:pos:R:3:forces:R:3 energy=1773.0921243807604 pbc="F F F"
Sb       0.00000000       0.00000000       0.00000000       0.00000000       0.00000000  -21736.73046875
Sb       0.00000000       0.00000000       0.29757576       0.00000000       0.00000000   21736.73046875
2
Properties=species:S:1:pos:R:3:forces:R:3 energy=900.9343485081899 pbc="F F F"
Sb       0.00000000       0.00000000       0.00000000       0.00000000       0.00000000   -9727.27832031
Sb       0.00000000       0.00000000       0.35636364       0.00000000       0.00000000    9727.27832031
2
Properties=species:S:1:pos:R:3:forces:R:3 energy=497.97756139881494 pbc="F F F"
Sb       0.00000000       0.00000000       0.00000000       0.00000000       0.00000000   -4662.78808594
Sb       0.00000000       0.00000000       0.41515152       0.00000000       0.00000000    4662.78808594
2
Properties=species:S:1:pos:R:3:forces:R:3 energy=300.23366493344685 pbc="F F F"
Sb       0.00000000       0.00000000       0.00000000       0.00000000       0.00000000   -2350.69921875
Sb       0.00000000       0.00000000       0.47393939       0.00000000       0.00000000    2350.69921875
2
Properties=species:S:1:pos:R:3:forces:R:3 energy=198.7883524651251 pbc="F F F"
Sb       0.00000000       0.00000000       0.00000000       0.00000000       0.00000000   -1229.43798828
Sb       0.00000000       0.00000000       0.53272727       0.00000000       0.00000000    1229.43798828
2
Properties=species:S:1:pos:R:3:forces:R:3 energy=145.12367966424773 pbc="F F F"
Sb       0.00000000       0.00000000       0.00000000       0.00000000       0.00000000    -657.83795166
Sb       0.00000000       0.00000000       0.59151515       0.00000000       0.00000000     657.83795166
2
Properties=species:S:1:pos:R:3:forces:R:3 energy=116.25624809965046 pbc="F F F"
Sb       0.00000000       0.00000000       0.00000000       0.00000000       0.00000000    -355.60131836
Sb       0.00000000       0.00000000       0.65030303       0.00000000       0.00000000     355.60131836
2
Properties=species:S:1:pos:R:3:forces:R:3 energy=100.57559179959352 pbc="F F F"
Sb       0.00000000       0.00000000       0.00000000       0.00000000       0.00000000    -195.07156372
Sb       0.00000000       0.00000000       0.70909091       0.00000000       0.00000000     195.07156372
2
Properties=species:S:1:pos:R:3:forces:R:3 energy=91.83348841933835 pbc="F F F"
Sb       0.00000000       0.00000000       0.00000000       0.00000000       0.00000000    -110.31794739
Sb       0.00000000       0.00000000       0.76787879       0.00000000       0.00000000     110.31794739
2
Properties=species:S:1:pos:R:3:forces:R:3 energy=87.50914025473531 pbc="F F F"
Sb       0.00000000       0.00000000       0.00000000       0.00000000       0.00000000     -30.50728416
Sb       0.00000000       0.00000000       0.82666667       0.00000000       0.00000000      30.50728416
2
Properties=species:S:1:pos:R:3:forces:R:3 energy=87.62439792973578 pbc="F F F"
Sb       0.00000000       0.00000000       0.00000000       0.00000000       0.00000000     -12.77444649
Sb       0.00000000       0.00000000       0.88545455       0.00000000       0.00000000      12.77444649
2
Properties=species:S:1:pos:R:3:forces:R:3 energy=86.73108033634553 pbc="F F F"
Sb       0.00000000       0.00000000       0.00000000       0.00000000       0.00000000     -39.76108551
Sb       0.00000000       0.00000000       0.94424242       0.00000000       0.00000000      39.76108551
2
Properties=species:S:1:pos:R:3:forces:R:3 energy=83.12916768248827 pbc="F F F"
Sb       0.00000000       0.00000000       0.00000000       0.00000000       0.00000000     -74.15632629
Sb       0.00000000       0.00000000       1.00303030       0.00000000       0.00000000      74.15632629
2
Properties=species:S:1:pos:R:3:forces:R:3 energy=78.67904211159858 pbc="F F F"
Sb       0.00000000       0.00000000       0.00000000       0.00000000       0.00000000     -82.76728058
Sb       0.00000000       0.00000000       1.06181818       0.00000000       0.00000000      82.76728058
2
Properties=species:S:1:pos:R:3:forces:R:3 energy=72.41740871045839 pbc="F F F"
Sb       0.00000000       0.00000000       0.00000000       0.00000000       0.00000000    -157.66510010
Sb       0.00000000       0.00000000       1.12060606       0.00000000       0.00000000     157.66510010
2
Properties=species:S:1:pos:R:3:forces:R:3 energy=61.93682357385823 pbc="F F F"
Sb       0.00000000       0.00000000       0.00000000       0.00000000       0.00000000    -179.32128906
Sb       0.00000000       0.00000000       1.17939394       0.00000000       0.00000000     179.32128906
2
Properties=species:S:1:pos:R:3:forces:R:3 energy=51.72079969425765 pbc="F F F"
Sb       0.00000000       0.00000000       0.00000000       0.00000000       0.00000000    -167.35908508
Sb       0.00000000       0.00000000       1.23818182       0.00000000       0.00000000     167.35908508
2
Properties=species:S:1:pos:R:3:forces:R:3 energy=42.24453783877443 pbc="F F F"
Sb       0.00000000       0.00000000       0.00000000       0.00000000       0.00000000    -155.53518677
Sb       0.00000000       0.00000000       1.29696970       0.00000000       0.00000000     155.53518677
2
Properties=species:S:1:pos:R:3:forces:R:3 energy=33.46861325688815 pbc="F F F"
Sb       0.00000000       0.00000000       0.00000000       0.00000000       0.00000000    -141.53486633
Sb       0.00000000       0.00000000       1.35575758       0.00000000       0.00000000     141.53486633
2
Properties=species:S:1:pos:R:3:forces:R:3 energy=25.84507346768367 pbc="F F F"
Sb       0.00000000       0.00000000       0.00000000       0.00000000       0.00000000    -116.17709351
Sb       0.00000000       0.00000000       1.41454545       0.00000000       0.00000000     116.17709351
2
Properties=species:S:1:pos:R:3:forces:R:3 energy=19.854255823181585 pbc="F F F"
Sb       0.00000000       0.00000000       0.00000000       0.00000000       0.00000000     -88.35165405
Sb       0.00000000       0.00000000       1.47333333       0.00000000       0.00000000      88.35165405
2
Properties=species:S:1:pos:R:3:forces:R:3 energy=15.314694429858065 pbc="F F F"
Sb       0.00000000       0.00000000       0.00000000       0.00000000       0.00000000     -67.47725677
Sb       0.00000000       0.00000000       1.53212121       0.00000000       0.00000000      67.47725677
2
Properties=species:S:1:pos:R:3:forces:R:3 energy=11.766642245692685 pbc="F F F"
Sb       0.00000000       0.00000000       0.00000000       0.00000000       0.00000000     -54.37066650
Sb       0.00000000       0.00000000       1.59090909       0.00000000       0.00000000      54.37066650
2
Properties=species:S:1:pos:R:3:forces:R:3 energy=8.814734813443833 pbc="F F F"
Sb       0.00000000       0.00000000       0.00000000       0.00000000       0.00000000     -46.72832489
Sb       0.00000000       0.00000000       1.64969697       0.00000000       0.00000000      46.72832489
2
Properties=species:S:1:pos:R:3:forces:R:3 energy=6.221225257510911 pbc="F F F"
Sb       0.00000000       0.00000000       0.00000000       0.00000000       0.00000000     -41.71951294
Sb       0.00000000       0.00000000       1.70848485       0.00000000       0.00000000      41.71951294
2
Properties=species:S:1:pos:R:3:forces:R:3 energy=3.9040023736427076 pbc="F F F"
Sb       0.00000000       0.00000000       0.00000000       0.00000000       0.00000000     -37.04601288
Sb       0.00000000       0.00000000       1.76727273       0.00000000       0.00000000      37.04601288
2
Properties=species:S:1:pos:R:3:forces:R:3 energy=1.8770383855642574 pbc="F F F"
Sb       0.00000000       0.00000000       0.00000000       0.00000000       0.00000000     -31.83224297
Sb       0.00000000       0.00000000       1.82606061       0.00000000       0.00000000      31.83224297
2
Properties=species:S:1:pos:R:3:forces:R:3 energy=0.1637960893236857 pbc="F F F"
Sb       0.00000000       0.00000000       0.00000000       0.00000000       0.00000000     -26.49740791
Sb       0.00000000       0.00000000       1.88484848       0.00000000       0.00000000      26.49740791
2
Properties=species:S:1:pos:R:3:forces:R:3 energy=-1.2497878180289297 pbc="F F F"
Sb       0.00000000       0.00000000       0.00000000       0.00000000       0.00000000     -21.72571945
Sb       0.00000000       0.00000000       1.94363636       0.00000000       0.00000000      21.72571945
2
Properties=species:S:1:pos:R:3:forces:R:3 energy=-2.4070822915814274 pbc="F F F"
Sb       0.00000000       0.00000000       0.00000000       0.00000000       0.00000000     -17.77839088
Sb       0.00000000       0.00000000       2.00242424       0.00000000       0.00000000      17.77839088
2
Properties=species:S:1:pos:R:3:forces:R:3 energy=-3.3531477521987743 pbc="F F F"
Sb       0.00000000       0.00000000       0.00000000       0.00000000       0.00000000     -14.49449348
Sb       0.00000000       0.00000000       2.06121212       0.00000000       0.00000000      14.49449348
2
Properties=species:S:1:pos:R:3:forces:R:3 energy=-4.119128598785293 pbc="F F F"
Sb       0.00000000       0.00000000       0.00000000       0.00000000       0.00000000     -11.61625195
Sb       0.00000000       0.00000000       2.12000000       0.00000000       0.00000000      11.61625195
2
Properties=species:S:1:pos:R:3:forces:R:3 energy=-4.724078897386182 pbc="F F F"
Sb       0.00000000       0.00000000       0.00000000       0.00000000       0.00000000      -9.00462914
Sb       0.00000000       0.00000000       2.17878788       0.00000000       0.00000000       9.00462914
2
Properties=species:S:1:pos:R:3:forces:R:3 energy=-5.182694867579595 pbc="F F F"
Sb       0.00000000       0.00000000       0.00000000       0.00000000       0.00000000      -6.64122963
Sb       0.00000000       0.00000000       2.23757576       0.00000000       0.00000000       6.64122963
2
Properties=species:S:1:pos:R:3:forces:R:3 energy=-5.510381728777141 pbc="F F F"
Sb       0.00000000       0.00000000       0.00000000       0.00000000       0.00000000      -4.55618000
Sb       0.00000000       0.00000000       2.29636364       0.00000000       0.00000000       4.55618000
2
Properties=species:S:1:pos:R:3:forces:R:3 energy=-5.724414735347655 pbc="F F F"
Sb       0.00000000       0.00000000       0.00000000       0.00000000       0.00000000      -2.77785993
Sb       0.00000000       0.00000000       2.35515152       0.00000000       0.00000000       2.77785993
2
Properties=species:S:1:pos:R:3:forces:R:3 energy=-5.843172555515346 pbc="F F F"
Sb       0.00000000       0.00000000       0.00000000       0.00000000       0.00000000      -1.31429482
Sb       0.00000000       0.00000000       2.41393939       0.00000000       0.00000000       1.31429482
2
Properties=species:S:1:pos:R:3:forces:R:3 energy=-5.884907413294122 pbc="F F F"
Sb       0.00000000       0.00000000       0.00000000       0.00000000       0.00000000      -0.15455081
Sb       0.00000000       0.00000000       2.47272727       0.00000000       0.00000000       0.15455081
2
Properties=species:S:1:pos:R:3:forces:R:3 energy=-5.866839142236516 pbc="F F F"
Sb       0.00000000       0.00000000       0.00000000       0.00000000       0.00000000       0.72506046
Sb       0.00000000       0.00000000       2.53151515       0.00000000       0.00000000      -0.72506046
2
Properties=species:S:1:pos:R:3:forces:R:3 energy=-5.804488147270155 pbc="F F F"
Sb       0.00000000       0.00000000       0.00000000       0.00000000       0.00000000       1.35850453
Sb       0.00000000       0.00000000       2.59030303       0.00000000       0.00000000      -1.35850453
2
Properties=species:S:1:pos:R:3:forces:R:3 energy=-5.711083122262127 pbc="F F F"
Sb       0.00000000       0.00000000       0.00000000       0.00000000       0.00000000       1.78945708
Sb       0.00000000       0.00000000       2.64909091       0.00000000       0.00000000      -1.78945708
2
Properties=species:S:1:pos:R:3:forces:R:3 energy=-5.59708811625705 pbc="F F F"
Sb       0.00000000       0.00000000       0.00000000       0.00000000       0.00000000       2.06733418
Sb       0.00000000       0.00000000       2.70787879       0.00000000       0.00000000      -2.06733418
2
Properties=species:S:1:pos:R:3:forces:R:3 energy=-5.47007896296102 pbc="F F F"
Sb       0.00000000       0.00000000       0.00000000       0.00000000       0.00000000       2.23956060
Sb       0.00000000       0.00000000       2.76666667       0.00000000       0.00000000      -2.23956060
2
Properties=species:S:1:pos:R:3:forces:R:3 energy=-5.335090068068508 pbc="F F F"
Sb       0.00000000       0.00000000       0.00000000       0.00000000       0.00000000       2.34398985
Sb       0.00000000       0.00000000       2.82545455       0.00000000       0.00000000      -2.34398985
2
Properties=species:S:1:pos:R:3:forces:R:3 energy=-5.1953229766081614 pbc="F F F"
Sb       0.00000000       0.00000000       0.00000000       0.00000000       0.00000000       2.40503001
Sb       0.00000000       0.00000000       2.88424242       0.00000000       0.00000000      -2.40503001
2
Properties=species:S:1:pos:R:3:forces:R:3 energy=-5.052931143871059 pbc="F F F"
Sb       0.00000000       0.00000000       0.00000000       0.00000000       0.00000000       2.43437123
Sb       0.00000000       0.00000000       2.94303030       0.00000000       0.00000000      -2.43437123
2
Properties=species:S:1:pos:R:3:forces:R:3 energy=-4.909660948607322 pbc="F F F"
Sb       0.00000000       0.00000000       0.00000000       0.00000000       0.00000000       2.43500304
Sb       0.00000000       0.00000000       3.00181818       0.00000000       0.00000000      -2.43500304
2
Properties=species:S:1:pos:R:3:forces:R:3 energy=-4.76721055000976 pbc="F F F"
Sb       0.00000000       0.00000000       0.00000000       0.00000000       0.00000000       2.40626812
Sb       0.00000000       0.00000000       3.06060606       0.00000000       0.00000000      -2.40626812
2
Properties=species:S:1:pos:R:3:forces:R:3 energy=-4.627325494076304 pbc="F F F"
Sb       0.00000000       0.00000000       0.00000000       0.00000000       0.00000000       2.34788108
Sb       0.00000000       0.00000000       3.11939394       0.00000000       0.00000000      -2.34788108
2
Properties=species:S:1:pos:R:3:forces:R:3 energy=-4.491697719007291 pbc="F F F"
Sb       0.00000000       0.00000000       0.00000000       0.00000000       0.00000000       2.26195431
Sb       0.00000000       0.00000000       3.17818182       0.00000000       0.00000000      -2.26195431
2
Properties=species:S:1:pos:R:3:forces:R:3 energy=-4.361825699845653 pbc="F F F"
Sb       0.00000000       0.00000000       0.00000000       0.00000000       0.00000000       2.15305018
Sb       0.00000000       0.00000000       3.23696970       0.00000000       0.00000000      -2.15305018
2
Properties=species:S:1:pos:R:3:forces:R:3 energy=-4.238884814044535 pbc="F F F"
Sb       0.00000000       0.00000000       0.00000000       0.00000000       0.00000000       2.02723265
Sb       0.00000000       0.00000000       3.29575758       0.00000000       0.00000000      -2.02723265
2
Properties=species:S:1:pos:R:3:forces:R:3 energy=-4.123677168577175 pbc="F F F"
Sb       0.00000000       0.00000000       0.00000000       0.00000000       0.00000000       1.89090085
Sb       0.00000000       0.00000000       3.35454545       0.00000000       0.00000000      -1.89090085
2
Properties=species:S:1:pos:R:3:forces:R:3 energy=-4.016651826670343 pbc="F F F"
Sb       0.00000000       0.00000000       0.00000000       0.00000000       0.00000000       1.74981892
Sb       0.00000000       0.00000000       3.41333333       0.00000000       0.00000000      -1.74981892
2
Properties=species:S:1:pos:R:3:forces:R:3 energy=-3.9179388028227637 pbc="F F F"
Sb       0.00000000       0.00000000       0.00000000       0.00000000       0.00000000       1.60884726
Sb       0.00000000       0.00000000       3.47212121       0.00000000       0.00000000      -1.60884726
2
Properties=species:S:1:pos:R:3:forces:R:3 energy=-3.827401734979723 pbc="F F F"
Sb       0.00000000       0.00000000       0.00000000       0.00000000       0.00000000       1.47241843
Sb       0.00000000       0.00000000       3.53090909       0.00000000       0.00000000      -1.47241843
2
Properties=species:S:1:pos:R:3:forces:R:3 energy=-3.744647485112225 pbc="F F F"
Sb       0.00000000       0.00000000       0.00000000       0.00000000       0.00000000       1.34466541
Sb       0.00000000       0.00000000       3.58969697       0.00000000       0.00000000      -1.34466541
2
Properties=species:S:1:pos:R:3:forces:R:3 energy=-3.6690648747943464 pbc="F F F"
Sb       0.00000000       0.00000000       0.00000000       0.00000000       0.00000000       1.22888207
Sb       0.00000000       0.00000000       3.64848485       0.00000000       0.00000000      -1.22888207
2
Properties=species:S:1:pos:R:3:forces:R:3 energy=-3.5998917426110792 pbc="F F F"
Sb       0.00000000       0.00000000       0.00000000       0.00000000       0.00000000       1.12680042
Sb       0.00000000       0.00000000       3.70727273       0.00000000       0.00000000      -1.12680042
2
Properties=species:S:1:pos:R:3:forces:R:3 energy=-3.5363136902794023 pbc="F F F"
Sb       0.00000000       0.00000000       0.00000000       0.00000000       0.00000000       1.03828466
Sb       0.00000000       0.00000000       3.76606061       0.00000000       0.00000000      -1.03828466
2
Properties=species:S:1:pos:R:3:forces:R:3 energy=-3.4775813987644715 pbc="F F F"
Sb       0.00000000       0.00000000       0.00000000       0.00000000       0.00000000       0.96161634
Sb       0.00000000       0.00000000       3.82484848       0.00000000       0.00000000      -0.96161634
2
Properties=species:S:1:pos:R:3:forces:R:3 energy=-3.4230724482238455 pbc="F F F"
Sb       0.00000000       0.00000000       0.00000000       0.00000000       0.00000000       0.89405215
Sb       0.00000000       0.00000000       3.88363636       0.00000000       0.00000000      -0.89405215
2
Properties=species:S:1:pos:R:3:forces:R:3 energy=-3.372342339423564 pbc="F F F"
Sb       0.00000000       0.00000000       0.00000000       0.00000000       0.00000000       0.83258933
Sb       0.00000000       0.00000000       3.94242424       0.00000000       0.00000000      -0.83258933
2
Properties=species:S:1:pos:R:3:forces:R:3 energy=-3.325114786604654 pbc="F F F"
Sb       0.00000000       0.00000000       0.00000000       0.00000000       0.00000000       0.77452821
Sb       0.00000000       0.00000000       4.00121212       0.00000000       0.00000000      -0.77452821
2
Properties=species:S:1:pos:R:3:forces:R:3 energy=-3.2812506453762817 pbc="F F F"
Sb       0.00000000       0.00000000       0.00000000       0.00000000       0.00000000       0.71786076
Sb       0.00000000       0.00000000       4.06000000       0.00000000       0.00000000      -0.71786076
2
Properties=species:S:1:pos:R:3:forces:R:3 energy=-3.240706789846629 pbc="F F F"
Sb       0.00000000       0.00000000       0.00000000       0.00000000       0.00000000       0.66146243
Sb       0.00000000       0.00000000       4.11878788       0.00000000       0.00000000      -0.66146243
2
Properties=species:S:1:pos:R:3:forces:R:3 energy=-3.2034781412302125 pbc="F F F"
Sb       0.00000000       0.00000000       0.00000000       0.00000000       0.00000000       0.60509515
Sb       0.00000000       0.00000000       4.17757576       0.00000000       0.00000000      -0.60509515
2
Properties=species:S:1:pos:R:3:forces:R:3 energy=-3.169550877617757 pbc="F F F"
Sb       0.00000000       0.00000000       0.00000000       0.00000000       0.00000000       0.54930943
Sb       0.00000000       0.00000000       4.23636364       0.00000000       0.00000000      -0.54930943
2
Properties=species:S:1:pos:R:3:forces:R:3 energy=-3.1388588128796866 pbc="F F F"
Sb       0.00000000       0.00000000       0.00000000       0.00000000       0.00000000       0.49524182
Sb       0.00000000       0.00000000       4.29515152       0.00000000       0.00000000      -0.49524182
2
Properties=species:S:1:pos:R:3:forces:R:3 energy=-3.111260778579334 pbc="F F F"
Sb       0.00000000       0.00000000       0.00000000       0.00000000       0.00000000       0.44433650
Sb       0.00000000       0.00000000       4.35393939       0.00000000       0.00000000      -0.44433650
2
Properties=species:S:1:pos:R:3:forces:R:3 energy=-3.086526128788862 pbc="F F F"
Sb       0.00000000       0.00000000       0.00000000       0.00000000       0.00000000       0.39802134
Sb       0.00000000       0.00000000       4.41272727       0.00000000       0.00000000      -0.39802134
2
Properties=species:S:1:pos:R:3:forces:R:3 energy=-3.064350199283041 pbc="F F F"
Sb       0.00000000       0.00000000       0.00000000       0.00000000       0.00000000       0.35744345
Sb       0.00000000       0.00000000       4.47151515       0.00000000       0.00000000      -0.35744345
2
Properties=species:S:1:pos:R:3:forces:R:3 energy=-3.0443728788458415 pbc="F F F"
Sb       0.00000000       0.00000000       0.00000000       0.00000000       0.00000000       0.32328060
Sb       0.00000000       0.00000000       4.53030303       0.00000000       0.00000000      -0.32328060
2
Properties=species:S:1:pos:R:3:forces:R:3 energy=-3.0262113082937336 pbc="F F F"
Sb       0.00000000       0.00000000       0.00000000       0.00000000       0.00000000       0.29567251
Sb       0.00000000       0.00000000       4.58909091       0.00000000       0.00000000      -0.29567251
2
Properties=species:S:1:pos:R:3:forces:R:3 energy=-3.009488223776199 pbc="F F F"
Sb       0.00000000       0.00000000       0.00000000       0.00000000       0.00000000       0.27423540
Sb       0.00000000       0.00000000       4.64787879       0.00000000       0.00000000      -0.27423540
2
Properties=species:S:1:pos:R:3:forces:R:3 energy=-2.9938628529885296 pbc="F F F"
Sb       0.00000000       0.00000000       0.00000000       0.00000000       0.00000000       0.25813490
Sb       0.00000000       0.00000000       4.70666667       0.00000000       0.00000000      -0.25813490
2
Properties=species:S:1:pos:R:3:forces:R:3 energy=-2.9790556188372093 pbc="F F F"
Sb       0.00000000       0.00000000       0.00000000       0.00000000       0.00000000       0.24620767
Sb       0.00000000       0.00000000       4.76545455       0.00000000       0.00000000      -0.24620767
2
Properties=species:S:1:pos:R:3:forces:R:3 energy=-2.964859764929494 pbc="F F F"
Sb       0.00000000       0.00000000       0.00000000       0.00000000       0.00000000       0.23709156
Sb       0.00000000       0.00000000       4.82424242       0.00000000       0.00000000      -0.23709156
2
Properties=species:S:1:pos:R:3:forces:R:3 energy=-2.951152294317649 pbc="F F F"
Sb       0.00000000       0.00000000       0.00000000       0.00000000       0.00000000       0.22940426
Sb       0.00000000       0.00000000       4.88303030       0.00000000       0.00000000      -0.22940426
2
Properties=species:S:1:pos:R:3:forces:R:3 energy=-2.937884085047342 pbc="F F F"
Sb       0.00000000       0.00000000       0.00000000       0.00000000       0.00000000       0.22190502
Sb       0.00000000       0.00000000       4.94181818       0.00000000       0.00000000      -0.22190502
2
Properties=species:S:1:pos:R:3:forces:R:3 energy=-2.9250763613962905 pbc="F F F"
Sb       0.00000000       0.00000000       0.00000000       0.00000000       0.00000000       0.21360950
Sb       0.00000000       0.00000000       5.00060606       0.00000000       0.00000000      -0.21360950
2
Properties=species:S:1:pos:R:3:forces:R:3 energy=-2.9127973161822185 pbc="F F F"
Sb       0.00000000       0.00000000       0.00000000       0.00000000       0.00000000       0.20383754
Sb       0.00000000       0.00000000       5.05939394       0.00000000       0.00000000      -0.20383754
2
Properties=species:S:1:pos:R:3:forces:R:3 energy=-2.9011468060403756 pbc="F F F"
Sb       0.00000000       0.00000000       0.00000000       0.00000000       0.00000000       0.19219638
Sb       0.00000000       0.00000000       5.11818182       0.00000000       0.00000000      -0.19219638
2
Properties=species:S:1:pos:R:3:forces:R:3 energy=-2.8902397302311735 pbc="F F F"
Sb       0.00000000       0.00000000       0.00000000       0.00000000       0.00000000       0.17855324
Sb       0.00000000       0.00000000       5.17696970       0.00000000       0.00000000      -0.17855324
2
Properties=species:S:1:pos:R:3:forces:R:3 energy=-2.8801914776033963 pbc="F F F"
Sb       0.00000000       0.00000000       0.00000000       0.00000000       0.00000000       0.16301280
Sb       0.00000000       0.00000000       5.23575758       0.00000000       0.00000000      -0.16301280
2
Properties=species:S:1:pos:R:3:forces:R:3 energy=-2.8711048705931486 pbc="F F F"
Sb       0.00000000       0.00000000       0.00000000       0.00000000       0.00000000       0.14590278
Sb       0.00000000       0.00000000       5.29454545       0.00000000       0.00000000      -0.14590278
2
Properties=species:S:1:pos:R:3:forces:R:3 energy=-2.8630566022913326 pbc="F F F"
Sb       0.00000000       0.00000000       0.00000000       0.00000000       0.00000000       0.12776963
Sb       0.00000000       0.00000000       5.35333333       0.00000000       0.00000000      -0.12776963
2
Properties=species:S:1:pos:R:3:forces:R:3 energy=-2.856087731378709 pbc="F F F"
Sb       0.00000000       0.00000000       0.00000000       0.00000000       0.00000000       0.10931595
Sb       0.00000000       0.00000000       5.41212121       0.00000000       0.00000000      -0.10931595
2
Properties=species:S:1:pos:R:3:forces:R:3 energy=-2.850194901820155 pbc="F F F"
Sb       0.00000000       0.00000000       0.00000000       0.00000000       0.00000000       0.09129994
Sb       0.00000000       0.00000000       5.47090909       0.00000000       0.00000000      -0.09129994
2
Properties=species:S:1:pos:R:3:forces:R:3 energy=-2.845330878306534 pbc="F F F"
Sb       0.00000000       0.00000000       0.00000000       0.00000000       0.00000000       0.07441519
Sb       0.00000000       0.00000000       5.52969697       0.00000000       0.00000000      -0.07441519
2
Properties=species:S:1:pos:R:3:forces:R:3 energy=-2.841412899616475 pbc="F F F"
Sb       0.00000000       0.00000000       0.00000000       0.00000000       0.00000000       0.05918773
Sb       0.00000000       0.00000000       5.58848485       0.00000000       0.00000000      -0.05918773
2
Properties=species:S:1:pos:R:3:forces:R:3 energy=-2.8383330177303825 pbc="F F F"
Sb       0.00000000       0.00000000       0.00000000       0.00000000       0.00000000       0.04593607
Sb       0.00000000       0.00000000       5.64727273       0.00000000       0.00000000      -0.04593607
2
Properties=species:S:1:pos:R:3:forces:R:3 energy=-2.8359716647227344 pbc="F F F"
Sb       0.00000000       0.00000000       0.00000000       0.00000000       0.00000000       0.03477018
Sb       0.00000000       0.00000000       5.70606061       0.00000000       0.00000000      -0.03477018
2
Properties=species:S:1:pos:R:3:forces:R:3 energy=-2.8342031934102017 pbc="F F F"
Sb       0.00000000       0.00000000       0.00000000       0.00000000       0.00000000       0.02565842
Sb       0.00000000       0.00000000       5.76484848       0.00000000       0.00000000      -0.02565842
2
Properties=species:S:1:pos:R:3:forces:R:3 energy=-2.832915259740596 pbc="F F F"
Sb       0.00000000       0.00000000       0.00000000       0.00000000       0.00000000       0.01851335
Sb       0.00000000       0.00000000       5.82363636       0.00000000       0.00000000      -0.01851335
2
Properties=species:S:1:pos:R:3:forces:R:3 energy=-2.8319913627997098 pbc="F F F"
Sb       0.00000000       0.00000000       0.00000000       0.00000000       0.00000000       0.01325667
Sb       0.00000000       0.00000000       5.88242424       0.00000000       0.00000000      -0.01325667
2
Properties=species:S:1:pos:R:3:forces:R:3 energy=-2.83131998470483 pbc="F F F"
Sb       0.00000000       0.00000000       0.00000000       0.00000000       0.00000000       0.00986791
Sb       0.00000000       0.00000000       5.94121212       0.00000000       0.00000000      -0.00986791
2
Properties=species:S:1:pos:R:3:forces:R:3 energy=-2.8307929319701075 pbc="F F F"
Sb       0.00000000       0.00000000       0.00000000       0.00000000       0.00000000       0.00839876
Sb       0.00000000       0.00000000       6.00000000       0.00000000       0.00000000      -0.00839876
