2
Properties=species:S:1:pos:R:3:forces:R:3 energy=13375.822930682929 pbc="F F F"
Sm       0.00000000       0.00000000       0.00000000       0.00000000       0.00000000 -210033.45312500
Sm       0.00000000       0.00000000       0.18000000       0.00000000       0.00000000  210033.45312500
2
Properties=species:S:1:pos:R:3:forces:R:3 energy=5982.646172870429 pbc="F F F"
Sm       0.00000000       0.00000000       0.00000000       0.00000000       0.00000000  -70694.29687500
Sm       0.00000000       0.00000000       0.23878788       0.00000000       0.00000000   70694.29687500
2
Properties=species:S:1:pos:R:3:forces:R:3 energy=3299.2084287298044 pbc="F F F"
Sm       0.00000000       0.00000000       0.00000000       0.00000000       0.00000000  -28032.59765625
Sm       0.00000000       0.00000000       0.29757576       0.00000000       0.00000000   28032.59765625
2
Properties=species:S:1:pos:R:3:forces:R:3 energy=2183.4628232610544 pbc="F F F"
Sm       0.00000000       0.00000000       0.00000000       0.00000000       0.00000000  -12323.05273438
Sm       0.00000000       0.00000000       0.35636364       0.00000000       0.00000000   12323.05273438
2
Properties=species:S:1:pos:R:3:forces:R:3 energy=1675.5929502141792 pbc="F F F"
Sm       0.00000000       0.00000000       0.00000000       0.00000000       0.00000000   -5853.73730469
Sm       0.00000000       0.00000000       0.41515152       0.00000000       0.00000000    5853.73730469
2
Properties=species:S:1:pos:R:3:forces:R:3 energy=1426.3887266067093 pbc="F F F"
Sm       0.00000000       0.00000000       0.00000000       0.00000000       0.00000000   -2997.52246094
Sm       0.00000000       0.00000000       0.47393939       0.00000000       0.00000000    2997.52246094
2
Properties=species:S:1:pos:R:3:forces:R:3 energy=1293.5068906692093 pbc="F F F"
Sm       0.00000000       0.00000000       0.00000000       0.00000000       0.00000000   -1690.92810059
Sm       0.00000000       0.00000000       0.53272727       0.00000000       0.00000000    1690.92810059
2
Properties=species:S:1:pos:R:3:forces:R:3 energy=1213.6980528039269 pbc="F F F"
Sm       0.00000000       0.00000000       0.00000000       0.00000000       0.00000000   -1106.81689453
Sm       0.00000000       0.00000000       0.59151515       0.00000000       0.00000000    1106.81689453
2
Properties=species:S:1:pos:R:3:forces:R:3 energy=1156.1531309796121 pbc="F F F"
Sm       0.00000000       0.00000000       0.00000000       0.00000000       0.00000000    -897.21667480
Sm       0.00000000       0.00000000       0.65030303       0.00000000       0.00000000     897.21667480
2
Properties=species:S:1:pos:R:3:forces:R:3 energy=1103.8076720712647 pbc="F F F"
Sm       0.00000000       0.00000000       0.00000000       0.00000000       0.00000000    -914.78509521
Sm       0.00000000       0.00000000       0.70909091       0.00000000       0.00000000     914.78509521
2
Properties=species:S:1:pos:R:3:forces:R:3 energy=1045.35613411204 pbc="F F F"
Sm       0.00000000       0.00000000       0.00000000       0.00000000       0.00000000   -1098.80139160
Sm       0.00000000       0.00000000       0.76787879       0.00000000       0.00000000    1098.80139160
2
Properties=species:S:1:pos:R:3:forces:R:3 energy=971.9244936390957 pbc="F F F"
Sm       0.00000000       0.00000000       0.00000000       0.00000000       0.00000000   -1420.27722168
Sm       0.00000000       0.00000000       0.82666667       0.00000000       0.00000000    1420.27722168
2
Properties=species:S:1:pos:R:3:forces:R:3 energy=876.2925969071938 pbc="F F F"
Sm       0.00000000       0.00000000       0.00000000       0.00000000       0.00000000   -1846.30664062
Sm       0.00000000       0.00000000       0.88545455       0.00000000       0.00000000    1846.30664062
2
Properties=species:S:1:pos:R:3:forces:R:3 energy=754.0441231282249 pbc="F F F"
Sm       0.00000000       0.00000000       0.00000000       0.00000000       0.00000000   -2311.28149414
Sm       0.00000000       0.00000000       0.94424242       0.00000000       0.00000000    2311.28149414
2
Properties=species:S:1:pos:R:3:forces:R:3 energy=606.0173291381262 pbc="F F F"
Sm       0.00000000       0.00000000       0.00000000       0.00000000       0.00000000   -2699.75952148
Sm       0.00000000       0.00000000       1.00303030       0.00000000       0.00000000    2699.75952148
2
Properties=species:S:1:pos:R:3:forces:R:3 energy=441.08819157542564 pbc="F F F"
Sm       0.00000000       0.00000000       0.00000000       0.00000000       0.00000000   -2860.91357422
Sm       0.00000000       0.00000000       1.06181818       0.00000000       0.00000000    2860.91357422
2
Properties=species:S:1:pos:R:3:forces:R:3 energy=276.56811183265313 pbc="F F F"
Sm       0.00000000       0.00000000       0.00000000       0.00000000       0.00000000   -2673.25708008
Sm       0.00000000       0.00000000       1.12060606       0.00000000       0.00000000    2673.25708008
2
Properties=species:S:1:pos:R:3:forces:R:3 energy=133.22987133256422 pbc="F F F"
Sm       0.00000000       0.00000000       0.00000000       0.00000000       0.00000000   -2166.19775391
Sm       0.00000000       0.00000000       1.17939394       0.00000000       0.00000000    2166.19775391
2
Properties=species:S:1:pos:R:3:forces:R:3 energy=39.10994628644054 pbc="F F F"
Sm       0.00000000       0.00000000       0.00000000       0.00000000       0.00000000    -662.31512451
Sm       0.00000000       0.00000000       1.23818182       0.00000000       0.00000000     662.31512451
2
Properties=species:S:1:pos:R:3:forces:R:3 energy=20.66491976803852 pbc="F F F"
Sm       0.00000000       0.00000000       0.00000000       0.00000000       0.00000000    -218.40756226
Sm       0.00000000       0.00000000       1.29696970       0.00000000       0.00000000     218.40756226
2
Properties=species:S:1:pos:R:3:forces:R:3 energy=12.936702965897716 pbc="F F F"
Sm       0.00000000       0.00000000       0.00000000       0.00000000       0.00000000     -77.36804962
Sm       0.00000000       0.00000000       1.35575758       0.00000000       0.00000000      77.36804962
2
Properties=species:S:1:pos:R:3:forces:R:3 energy=8.977628922857669 pbc="F F F"
Sm       0.00000000       0.00000000       0.00000000       0.00000000       0.00000000     -63.98038483
Sm       0.00000000       0.00000000       1.41454545       0.00000000       0.00000000      63.98038483
2
Properties=species:S:1:pos:R:3:forces:R:3 energy=5.393967049192158 pbc="F F F"
Sm       0.00000000       0.00000000       0.00000000       0.00000000       0.00000000     -55.65927124
Sm       0.00000000       0.00000000       1.47333333       0.00000000       0.00000000      55.65927124
2
Properties=species:S:1:pos:R:3:forces:R:3 energy=2.5982491112602353 pbc="F F F"
Sm       0.00000000       0.00000000       0.00000000       0.00000000       0.00000000     -39.17506790
Sm       0.00000000       0.00000000       1.53212121       0.00000000       0.00000000      39.17506790
2
Properties=species:S:1:pos:R:3:forces:R:3 energy=0.7494443654073721 pbc="F F F"
Sm       0.00000000       0.00000000       0.00000000       0.00000000       0.00000000     -24.29807663
Sm       0.00000000       0.00000000       1.59090909       0.00000000       0.00000000      24.29807663
2
Properties=species:S:1:pos:R:3:forces:R:3 energy=-0.32502638885802415 pbc="F F F"
Sm       0.00000000       0.00000000       0.00000000       0.00000000       0.00000000     -12.76604748
Sm       0.00000000       0.00000000       1.64969697       0.00000000       0.00000000      12.76604748
2
Properties=species:S:1:pos:R:3:forces:R:3 energy=-0.8062742204853407 pbc="F F F"
Sm       0.00000000       0.00000000       0.00000000       0.00000000       0.00000000      -4.05594730
Sm       0.00000000       0.00000000       1.70848485       0.00000000       0.00000000       4.05594730
2
Properties=species:S:1:pos:R:3:forces:R:3 energy=-0.8566268764260967 pbc="F F F"
Sm       0.00000000       0.00000000       0.00000000       0.00000000       0.00000000       1.86075795
Sm       0.00000000       0.00000000       1.76727273       0.00000000       0.00000000      -1.86075795
2
Properties=species:S:1:pos:R:3:forces:R:3 energy=-0.6431876620332829 pbc="F F F"
Sm       0.00000000       0.00000000       0.00000000       0.00000000       0.00000000       4.95937634
Sm       0.00000000       0.00000000       1.82606061       0.00000000       0.00000000      -4.95937634
2
Properties=species:S:1:pos:R:3:forces:R:3 energy=-0.3186380024146818 pbc="F F F"
Sm       0.00000000       0.00000000       0.00000000       0.00000000       0.00000000       5.75977087
Sm       0.00000000       0.00000000       1.88484848       0.00000000       0.00000000      -5.75977087
2
Properties=species:S:1:pos:R:3:forces:R:3 energy=0.002337462696427234 pbc="F F F"
Sm       0.00000000       0.00000000       0.00000000       0.00000000       0.00000000       4.93571854
Sm       0.00000000       0.00000000       1.94363636       0.00000000       0.00000000      -4.93571854
2
Properties=species:S:1:pos:R:3:forces:R:3 energy=0.2407688048262426 pbc="F F F"
Sm       0.00000000       0.00000000       0.00000000       0.00000000       0.00000000       3.05492187
Sm       0.00000000       0.00000000       2.00242424       0.00000000       0.00000000      -3.05492187
2
Properties=species:S:1:pos:R:3:forces:R:3 energy=0.35597188737489455 pbc="F F F"
Sm       0.00000000       0.00000000       0.00000000       0.00000000       0.00000000       0.89155173
Sm       0.00000000       0.00000000       2.06121212       0.00000000       0.00000000      -0.89155173
2
Properties=species:S:1:pos:R:3:forces:R:3 energy=0.3549228299674145 pbc="F F F"
Sm       0.00000000       0.00000000       0.00000000       0.00000000       0.00000000      -0.81951016
Sm       0.00000000       0.00000000       2.12000000       0.00000000       0.00000000       0.81951016
2
Properties=species:S:1:pos:R:3:forces:R:3 energy=0.27202322019682085 pbc="F F F"
Sm       0.00000000       0.00000000       0.00000000       0.00000000       0.00000000      -1.90934658
Sm       0.00000000       0.00000000       2.17878788       0.00000000       0.00000000       1.90934658
2
Properties=species:S:1:pos:R:3:forces:R:3 energy=0.13882803811145863 pbc="F F F"
Sm       0.00000000       0.00000000       0.00000000       0.00000000       0.00000000      -2.56932378
Sm       0.00000000       0.00000000       2.23757576       0.00000000       0.00000000       2.56932378
2
Properties=species:S:1:pos:R:3:forces:R:3 energy=-0.025551704872799813 pbc="F F F"
Sm       0.00000000       0.00000000       0.00000000       0.00000000       0.00000000      -2.99556375
Sm       0.00000000       0.00000000       2.29636364       0.00000000       0.00000000       2.99556375
2
Properties=species:S:1:pos:R:3:forces:R:3 energy=-0.21094623120614067 pbc="F F F"
Sm       0.00000000       0.00000000       0.00000000       0.00000000       0.00000000      -3.29556298
Sm       0.00000000       0.00000000       2.35515152       0.00000000       0.00000000       3.29556298
2
Properties=species:S:1:pos:R:3:forces:R:3 energy=-0.41138807852883996 pbc="F F F"
Sm       0.00000000       0.00000000       0.00000000       0.00000000       0.00000000      -3.51065063
Sm       0.00000000       0.00000000       2.41393939       0.00000000       0.00000000       3.51065063
2
Properties=species:S:1:pos:R:3:forces:R:3 energy=-0.6221863460778186 pbc="F F F"
Sm       0.00000000       0.00000000       0.00000000       0.00000000       0.00000000      -3.64730501
Sm       0.00000000       0.00000000       2.47272727       0.00000000       0.00000000       3.64730501
2
Properties=species:S:1:pos:R:3:forces:R:3 energy=-0.838537821516154 pbc="F F F"
Sm       0.00000000       0.00000000       0.00000000       0.00000000       0.00000000      -3.69793940
Sm       0.00000000       0.00000000       2.53151515       0.00000000       0.00000000       3.69793940
2
Properties=species:S:1:pos:R:3:forces:R:3 energy=-1.0551085988003674 pbc="F F F"
Sm       0.00000000       0.00000000       0.00000000       0.00000000       0.00000000      -3.65373898
Sm       0.00000000       0.00000000       2.59030303       0.00000000       0.00000000       3.65373898
2
Properties=species:S:1:pos:R:3:forces:R:3 energy=-1.2662259551593942 pbc="F F F"
Sm       0.00000000       0.00000000       0.00000000       0.00000000       0.00000000      -3.51280355
Sm       0.00000000       0.00000000       2.64909091       0.00000000       0.00000000       3.51280355
2
Properties=species:S:1:pos:R:3:forces:R:3 energy=-1.4664058024357005 pbc="F F F"
Sm       0.00000000       0.00000000       0.00000000       0.00000000       0.00000000      -3.28419375
Sm       0.00000000       0.00000000       2.70787879       0.00000000       0.00000000       3.28419375
2
Properties=species:S:1:pos:R:3:forces:R:3 energy=-1.651020398986827 pbc="F F F"
Sm       0.00000000       0.00000000       0.00000000       0.00000000       0.00000000      -2.98708630
Sm       0.00000000       0.00000000       2.76666667       0.00000000       0.00000000       2.98708630
2
Properties=species:S:1:pos:R:3:forces:R:3 energy=-1.816745110424664 pbc="F F F"
Sm       0.00000000       0.00000000       0.00000000       0.00000000       0.00000000      -2.64553595
Sm       0.00000000       0.00000000       2.82545455       0.00000000       0.00000000       2.64553595
2
Properties=species:S:1:pos:R:3:forces:R:3 energy=-1.9616422085783116 pbc="F F F"
Sm       0.00000000       0.00000000       0.00000000       0.00000000       0.00000000      -2.28181386
Sm       0.00000000       0.00000000       2.88424242       0.00000000       0.00000000       2.28181386
2
Properties=species:S:1:pos:R:3:forces:R:3 energy=-2.0849176695362055 pbc="F F F"
Sm       0.00000000       0.00000000       0.00000000       0.00000000       0.00000000      -1.91203785
Sm       0.00000000       0.00000000       2.94303030       0.00000000       0.00000000       1.91203785
2
Properties=species:S:1:pos:R:3:forces:R:3 energy=-2.1865253757981344 pbc="F F F"
Sm       0.00000000       0.00000000       0.00000000       0.00000000       0.00000000      -1.54590249
Sm       0.00000000       0.00000000       3.00181818       0.00000000       0.00000000       1.54590249
2
Properties=species:S:1:pos:R:3:forces:R:3 energy=-2.266869694265502 pbc="F F F"
Sm       0.00000000       0.00000000       0.00000000       0.00000000       0.00000000      -1.18953478
Sm       0.00000000       0.00000000       3.06060606       0.00000000       0.00000000       1.18953478
2
Properties=species:S:1:pos:R:3:forces:R:3 energy=-2.326690218697315 pbc="F F F"
Sm       0.00000000       0.00000000       0.00000000       0.00000000       0.00000000      -0.84875828
Sm       0.00000000       0.00000000       3.11939394       0.00000000       0.00000000       0.84875828
2
Properties=species:S:1:pos:R:3:forces:R:3 energy=-2.367099731285315 pbc="F F F"
Sm       0.00000000       0.00000000       0.00000000       0.00000000       0.00000000      -0.53027546
Sm       0.00000000       0.00000000       3.17818182       0.00000000       0.00000000       0.53027546
2
Properties=species:S:1:pos:R:3:forces:R:3 energy=-2.3895989062422505 pbc="F F F"
Sm       0.00000000       0.00000000       0.00000000       0.00000000       0.00000000      -0.24032332
Sm       0.00000000       0.00000000       3.23696970       0.00000000       0.00000000       0.24032332
2
Properties=species:S:1:pos:R:3:forces:R:3 energy=-2.395981145110852 pbc="F F F"
Sm       0.00000000       0.00000000       0.00000000       0.00000000       0.00000000       0.01785560
Sm       0.00000000       0.00000000       3.29575758       0.00000000       0.00000000      -0.01785560
2
Properties=species:S:1:pos:R:3:forces:R:3 energy=-2.3881031293917165 pbc="F F F"
Sm       0.00000000       0.00000000       0.00000000       0.00000000       0.00000000       0.24536400
Sm       0.00000000       0.00000000       3.35454545       0.00000000       0.00000000      -0.24536400
2
Properties=species:S:1:pos:R:3:forces:R:3 energy=-2.367647543371947 pbc="F F F"
Sm       0.00000000       0.00000000       0.00000000       0.00000000       0.00000000       0.44663492
Sm       0.00000000       0.00000000       3.41333333       0.00000000       0.00000000      -0.44663492
2
Properties=species:S:1:pos:R:3:forces:R:3 energy=-2.3360047448180903 pbc="F F F"
Sm       0.00000000       0.00000000       0.00000000       0.00000000       0.00000000       0.62664545
Sm       0.00000000       0.00000000       3.47212121       0.00000000       0.00000000      -0.62664545
2
Properties=species:S:1:pos:R:3:forces:R:3 energy=-2.2943288797053434 pbc="F F F"
Sm       0.00000000       0.00000000       0.00000000       0.00000000       0.00000000       0.78818148
Sm       0.00000000       0.00000000       3.53090909       0.00000000       0.00000000      -0.78818148
2
Properties=species:S:1:pos:R:3:forces:R:3 energy=-2.2437043744134963 pbc="F F F"
Sm       0.00000000       0.00000000       0.00000000       0.00000000       0.00000000       0.93071645
Sm       0.00000000       0.00000000       3.58969697       0.00000000       0.00000000      -0.93071645
2
Properties=species:S:1:pos:R:3:forces:R:3 energy=-2.185327899787942 pbc="F F F"
Sm       0.00000000       0.00000000       0.00000000       0.00000000       0.00000000       1.05134964
Sm       0.00000000       0.00000000       3.64848485       0.00000000       0.00000000      -1.05134964
2
Properties=species:S:1:pos:R:3:forces:R:3 energy=-2.1205815022870165 pbc="F F F"
Sm       0.00000000       0.00000000       0.00000000       0.00000000       0.00000000       1.14706051
Sm       0.00000000       0.00000000       3.70727273       0.00000000       0.00000000      -1.14706051
2
Properties=species:S:1:pos:R:3:forces:R:3 energy=-2.050973326454823 pbc="F F F"
Sm       0.00000000       0.00000000       0.00000000       0.00000000       0.00000000       1.21669865
Sm       0.00000000       0.00000000       3.76606061       0.00000000       0.00000000      -1.21669865
2
Properties=species:S:1:pos:R:3:forces:R:3 energy=-1.9780112404030212 pbc="F F F"
Sm       0.00000000       0.00000000       0.00000000       0.00000000       0.00000000       1.26169658
Sm       0.00000000       0.00000000       3.82484848       0.00000000       0.00000000      -1.26169658
2
Properties=species:S:1:pos:R:3:forces:R:3 energy=-1.9030478257205432 pbc="F F F"
Sm       0.00000000       0.00000000       0.00000000       0.00000000       0.00000000       1.28532171
Sm       0.00000000       0.00000000       3.88363636       0.00000000       0.00000000      -1.28532171
2
Properties=species:S:1:pos:R:3:forces:R:3 energy=-1.8272335230551089 pbc="F F F"
Sm       0.00000000       0.00000000       0.00000000       0.00000000       0.00000000       1.29127693
Sm       0.00000000       0.00000000       3.94242424       0.00000000       0.00000000      -1.29127693
2
Properties=species:S:1:pos:R:3:forces:R:3 energy=-1.751512754059517 pbc="F F F"
Sm       0.00000000       0.00000000       0.00000000       0.00000000       0.00000000       1.28257608
Sm       0.00000000       0.00000000       4.00121212       0.00000000       0.00000000      -1.28257608
2
Properties=species:S:1:pos:R:3:forces:R:3 energy=-1.6766819077915218 pbc="F F F"
Sm       0.00000000       0.00000000       0.00000000       0.00000000       0.00000000       1.26121259
Sm       0.00000000       0.00000000       4.06000000       0.00000000       0.00000000      -1.26121259
2
Properties=species:S:1:pos:R:3:forces:R:3 energy=-1.6034468629478391 pbc="F F F"
Sm       0.00000000       0.00000000       0.00000000       0.00000000       0.00000000       1.22850084
Sm       0.00000000       0.00000000       4.11878788       0.00000000       0.00000000      -1.22850084
2
Properties=species:S:1:pos:R:3:forces:R:3 energy=-1.5324385230856534 pbc="F F F"
Sm       0.00000000       0.00000000       0.00000000       0.00000000       0.00000000       1.18565249
Sm       0.00000000       0.00000000       4.17757576       0.00000000       0.00000000      -1.18565249
2
Properties=species:S:1:pos:R:3:forces:R:3 energy=-1.4642107215405604 pbc="F F F"
Sm       0.00000000       0.00000000       0.00000000       0.00000000       0.00000000       1.13419044
Sm       0.00000000       0.00000000       4.23636364       0.00000000       0.00000000      -1.13419044
2
Properties=species:S:1:pos:R:3:forces:R:3 energy=-1.3992142643117151 pbc="F F F"
Sm       0.00000000       0.00000000       0.00000000       0.00000000       0.00000000       1.07607186
Sm       0.00000000       0.00000000       4.29515152       0.00000000       0.00000000      -1.07607186
2
Properties=species:S:1:pos:R:3:forces:R:3 energy=-1.3377768493842437 pbc="F F F"
Sm       0.00000000       0.00000000       0.00000000       0.00000000       0.00000000       1.01361990
Sm       0.00000000       0.00000000       4.35393939       0.00000000       0.00000000      -1.01361990
2
Properties=species:S:1:pos:R:3:forces:R:3 energy=-1.280074517520291 pbc="F F F"
Sm       0.00000000       0.00000000       0.00000000       0.00000000       0.00000000       0.94935173
Sm       0.00000000       0.00000000       4.41272727       0.00000000       0.00000000      -0.94935173
2
Properties=species:S:1:pos:R:3:forces:R:3 energy=-1.226140217488887 pbc="F F F"
Sm       0.00000000       0.00000000       0.00000000       0.00000000       0.00000000       0.88584548
Sm       0.00000000       0.00000000       4.47151515       0.00000000       0.00000000      -0.88584548
2
Properties=species:S:1:pos:R:3:forces:R:3 energy=-1.1758568055640368 pbc="F F F"
Sm       0.00000000       0.00000000       0.00000000       0.00000000       0.00000000       0.82553929
Sm       0.00000000       0.00000000       4.53030303       0.00000000       0.00000000      -0.82553929
2
Properties=species:S:1:pos:R:3:forces:R:3 energy=-1.1289729181992123 pbc="F F F"
Sm       0.00000000       0.00000000       0.00000000       0.00000000       0.00000000       0.77052706
Sm       0.00000000       0.00000000       4.58909091       0.00000000       0.00000000      -0.77052706
2
Properties=species:S:1:pos:R:3:forces:R:3 energy=-1.085129256259803 pbc="F F F"
Sm       0.00000000       0.00000000       0.00000000       0.00000000       0.00000000       0.72229546
Sm       0.00000000       0.00000000       4.64787879       0.00000000       0.00000000      -0.72229546
2
Properties=species:S:1:pos:R:3:forces:R:3 energy=-1.0439014623534895 pbc="F F F"
Sm       0.00000000       0.00000000       0.00000000       0.00000000       0.00000000       0.68150932
Sm       0.00000000       0.00000000       4.70666667       0.00000000       0.00000000      -0.68150932
2
Properties=species:S:1:pos:R:3:forces:R:3 energy=-1.004856940479801 pbc="F F F"
Sm       0.00000000       0.00000000       0.00000000       0.00000000       0.00000000       0.64797831
Sm       0.00000000       0.00000000       4.76545455       0.00000000       0.00000000      -0.64797831
2
Properties=species:S:1:pos:R:3:forces:R:3 energy=-0.9675908103022028 pbc="F F F"
Sm       0.00000000       0.00000000       0.00000000       0.00000000       0.00000000       0.62073809
Sm       0.00000000       0.00000000       4.82424242       0.00000000       0.00000000      -0.62073809
2
Properties=species:S:1:pos:R:3:forces:R:3 energy=-0.9317811301435348 pbc="F F F"
Sm       0.00000000       0.00000000       0.00000000       0.00000000       0.00000000       0.59829098
Sm       0.00000000       0.00000000       4.88303030       0.00000000       0.00000000      -0.59829098
2
Properties=species:S:1:pos:R:3:forces:R:3 energy=-0.8971871393569367 pbc="F F F"
Sm       0.00000000       0.00000000       0.00000000       0.00000000       0.00000000       0.57890838
Sm       0.00000000       0.00000000       4.94181818       0.00000000       0.00000000      -0.57890838
2
Properties=species:S:1:pos:R:3:forces:R:3 energy=-0.8636867090497002 pbc="F F F"
Sm       0.00000000       0.00000000       0.00000000       0.00000000       0.00000000       0.56083399
Sm       0.00000000       0.00000000       5.00060606       0.00000000       0.00000000      -0.56083399
2
Properties=species:S:1:pos:R:3:forces:R:3 energy=-0.8312521221746634 pbc="F F F"
Sm       0.00000000       0.00000000       0.00000000       0.00000000       0.00000000       0.54241943
Sm       0.00000000       0.00000000       5.05939394       0.00000000       0.00000000      -0.54241943
2
Properties=species:S:1:pos:R:3:forces:R:3 energy=-0.7999470719551345 pbc="F F F"
Sm       0.00000000       0.00000000       0.00000000       0.00000000       0.00000000       0.52217138
Sm       0.00000000       0.00000000       5.11818182       0.00000000       0.00000000      -0.52217138
2
Properties=species:S:1:pos:R:3:forces:R:3 energy=-0.7699201128775637 pbc="F F F"
Sm       0.00000000       0.00000000       0.00000000       0.00000000       0.00000000       0.49882305
Sm       0.00000000       0.00000000       5.17696970       0.00000000       0.00000000      -0.49882305
2
Properties=species:S:1:pos:R:3:forces:R:3 energy=-0.741380174685876 pbc="F F F"
Sm       0.00000000       0.00000000       0.00000000       0.00000000       0.00000000       0.47142342
Sm       0.00000000       0.00000000       5.23575758       0.00000000       0.00000000      -0.47142342
2
Properties=species:S:1:pos:R:3:forces:R:3 energy=-0.7145839477875588 pbc="F F F"
Sm       0.00000000       0.00000000       0.00000000       0.00000000       0.00000000       0.43943819
Sm       0.00000000       0.00000000       5.29454545       0.00000000       0.00000000      -0.43943819
2
Properties=species:S:1:pos:R:3:forces:R:3 energy=-0.6898015662334055 pbc="F F F"
Sm       0.00000000       0.00000000       0.00000000       0.00000000       0.00000000       0.40287799
Sm       0.00000000       0.00000000       5.35333333       0.00000000       0.00000000      -0.40287799
2
Properties=species:S:1:pos:R:3:forces:R:3 energy=-0.6672917450770476 pbc="F F F"
Sm       0.00000000       0.00000000       0.00000000       0.00000000       0.00000000       0.36229461
Sm       0.00000000       0.00000000       5.41212121       0.00000000       0.00000000      -0.36229461
2
Properties=species:S:1:pos:R:3:forces:R:3 energy=-0.6472619607204468 pbc="F F F"
Sm       0.00000000       0.00000000       0.00000000       0.00000000       0.00000000       0.31878114
Sm       0.00000000       0.00000000       5.47090909       0.00000000       0.00000000      -0.31878114
2
Properties=species:S:1:pos:R:3:forces:R:3 energy=-0.6298401818891852 pbc="F F F"
Sm       0.00000000       0.00000000       0.00000000       0.00000000       0.00000000       0.27376598
Sm       0.00000000       0.00000000       5.52969697       0.00000000       0.00000000      -0.27376598
2
Properties=species:S:1:pos:R:3:forces:R:3 energy=-0.6150707519922243 pbc="F F F"
Sm       0.00000000       0.00000000       0.00000000       0.00000000       0.00000000       0.22888133
Sm       0.00000000       0.00000000       5.58848485       0.00000000       0.00000000      -0.22888133
2
Properties=species:S:1:pos:R:3:forces:R:3 energy=-0.60289531680353 pbc="F F F"
Sm       0.00000000       0.00000000       0.00000000       0.00000000       0.00000000       0.18576108
Sm       0.00000000       0.00000000       5.64727273       0.00000000       0.00000000      -0.18576108
2
Properties=species:S:1:pos:R:3:forces:R:3 energy=-0.5931655890234869 pbc="F F F"
Sm       0.00000000       0.00000000       0.00000000       0.00000000       0.00000000       0.14600998
Sm       0.00000000       0.00000000       5.70606061       0.00000000       0.00000000      -0.14600998
2
Properties=species:S:1:pos:R:3:forces:R:3 energy=-0.5856277762114763 pbc="F F F"
Sm       0.00000000       0.00000000       0.00000000       0.00000000       0.00000000       0.11099784
Sm       0.00000000       0.00000000       5.76484848       0.00000000       0.00000000      -0.11099784
2
Properties=species:S:1:pos:R:3:forces:R:3 energy=-0.5799920011901077 pbc="F F F"
Sm       0.00000000       0.00000000       0.00000000       0.00000000       0.00000000       0.08198504
Sm       0.00000000       0.00000000       5.82363636       0.00000000       0.00000000      -0.08198504
2
Properties=species:S:1:pos:R:3:forces:R:3 energy=-0.5758593626310418 pbc="F F F"
Sm       0.00000000       0.00000000       0.00000000       0.00000000       0.00000000       0.05999666
Sm       0.00000000       0.00000000       5.88242424       0.00000000       0.00000000      -0.05999666
2
Properties=species:S:1:pos:R:3:forces:R:3 energy=-0.5727829232778846 pbc="F F F"
Sm       0.00000000       0.00000000       0.00000000       0.00000000       0.00000000       0.04594045
Sm       0.00000000       0.00000000       5.94121212       0.00000000       0.00000000      -0.04594045
2
Properties=species:S:1:pos:R:3:forces:R:3 energy=-0.5702848101435936 pbc="F F F"
Sm       0.00000000       0.00000000       0.00000000       0.00000000       0.00000000       0.04060670
Sm       0.00000000       0.00000000       6.00000000       0.00000000       0.00000000      -0.04060670
