2
Properties=species:S:1:pos:R:3:forces:R:3 energy=13037.355402461915 pbc="F F F"
Tb       0.00000000       0.00000000       0.00000000       0.00000000       0.00000000 -225361.00000000
Tb       0.00000000       0.00000000       0.18000000       0.00000000       0.00000000  225361.00000000
2
Properties=species:S:1:pos:R:3:forces:R:3 energy=5120.879328243166 pbc="F F F"
Tb       0.00000000       0.00000000       0.00000000       0.00000000       0.00000000  -75472.92187500
Tb       0.00000000       0.00000000       0.23878788       0.00000000       0.00000000   75472.92187500
2
Properties=species:S:1:pos:R:3:forces:R:3 energy=2262.734308711916 pbc="F F F"
Tb       0.00000000       0.00000000       0.00000000       0.00000000       0.00000000  -29756.40625000
Tb       0.00000000       0.00000000       0.29757576       0.00000000       0.00000000   29756.40625000
2
Properties=species:S:1:pos:R:3:forces:R:3 energy=1081.994806758791 pbc="F F F"
Tb       0.00000000       0.00000000       0.00000000       0.00000000       0.00000000  -12981.17382812
Tb       0.00000000       0.00000000       0.35636364       0.00000000       0.00000000   12981.17382812
2
Properties=species:S:1:pos:R:3:forces:R:3 energy=549.7351632041035 pbc="F F F"
Tb       0.00000000       0.00000000       0.00000000       0.00000000       0.00000000   -6083.91943359
Tb       0.00000000       0.00000000       0.41515152       0.00000000       0.00000000    6083.91943359
2
Properties=species:S:1:pos:R:3:forces:R:3 energy=293.68929528418164 pbc="F F F"
Tb       0.00000000       0.00000000       0.00000000       0.00000000       0.00000000   -3019.84790039
Tb       0.00000000       0.00000000       0.47393939       0.00000000       0.00000000    3019.84790039
2
Properties=species:S:1:pos:R:3:forces:R:3 energy=163.70936061714139 pbc="F F F"
Tb       0.00000000       0.00000000       0.00000000       0.00000000       0.00000000   -1574.81018066
Tb       0.00000000       0.00000000       0.53272727       0.00000000       0.00000000    1574.81018066
2
Properties=species:S:1:pos:R:3:forces:R:3 energy=94.56779722695663 pbc="F F F"
Tb       0.00000000       0.00000000       0.00000000       0.00000000       0.00000000    -857.50720215
Tb       0.00000000       0.00000000       0.59151515       0.00000000       0.00000000     857.50720215
2
Properties=species:S:1:pos:R:3:forces:R:3 energy=56.267111382402135 pbc="F F F"
Tb       0.00000000       0.00000000       0.00000000       0.00000000       0.00000000    -484.42132568
Tb       0.00000000       0.00000000       0.65030303       0.00000000       0.00000000     484.42132568
2
Properties=species:S:1:pos:R:3:forces:R:3 energy=34.32890189939588 pbc="F F F"
Tb       0.00000000       0.00000000       0.00000000       0.00000000       0.00000000    -281.66229248
Tb       0.00000000       0.00000000       0.70909091       0.00000000       0.00000000     281.66229248
2
Properties=species:S:1:pos:R:3:forces:R:3 energy=21.454746943539238 pbc="F F F"
Tb       0.00000000       0.00000000       0.00000000       0.00000000       0.00000000    -166.72766113
Tb       0.00000000       0.00000000       0.76787879       0.00000000       0.00000000     166.72766113
2
Properties=species:S:1:pos:R:3:forces:R:3 energy=13.816593053077224 pbc="F F F"
Tb       0.00000000       0.00000000       0.00000000       0.00000000       0.00000000     -98.81001282
Tb       0.00000000       0.00000000       0.82666667       0.00000000       0.00000000      98.81001282
2
Properties=species:S:1:pos:R:3:forces:R:3 energy=9.332507219135712 pbc="F F F"
Tb       0.00000000       0.00000000       0.00000000       0.00000000       0.00000000     -56.95293045
Tb       0.00000000       0.00000000       0.88545455       0.00000000       0.00000000      56.95293045
2
Properties=species:S:1:pos:R:3:forces:R:3 energy=6.829581135592879 pbc="F F F"
Tb       0.00000000       0.00000000       0.00000000       0.00000000       0.00000000     -30.09685707
Tb       0.00000000       0.00000000       0.94424242       0.00000000       0.00000000      30.09685707
2
Properties=species:S:1:pos:R:3:forces:R:3 energy=5.615946547927582 pbc="F F F"
Tb       0.00000000       0.00000000       0.00000000       0.00000000       0.00000000     -12.41474533
Tb       0.00000000       0.00000000       1.00303030       0.00000000       0.00000000      12.41474533
2
Properties=species:S:1:pos:R:3:forces:R:3 energy=5.246819291711108 pbc="F F F"
Tb       0.00000000       0.00000000       0.00000000       0.00000000       0.00000000      -1.07278526
Tb       0.00000000       0.00000000       1.06181818       0.00000000       0.00000000       1.07278526
2
Properties=species:S:1:pos:R:3:forces:R:3 energy=5.386573794472655 pbc="F F F"
Tb       0.00000000       0.00000000       0.00000000       0.00000000       0.00000000       4.97274351
Tb       0.00000000       0.00000000       1.12060606       0.00000000       0.00000000      -4.97274351
2
Properties=species:S:1:pos:R:3:forces:R:3 energy=5.732013149168766 pbc="F F F"
Tb       0.00000000       0.00000000       0.00000000       0.00000000       0.00000000       5.94870710
Tb       0.00000000       0.00000000       1.17939394       0.00000000       0.00000000      -5.94870710
2
Properties=species:S:1:pos:R:3:forces:R:3 energy=5.9937864453464575 pbc="F F F"
Tb       0.00000000       0.00000000       0.00000000       0.00000000       0.00000000       2.25008392
Tb       0.00000000       0.00000000       1.23818182       0.00000000       0.00000000      -2.25008392
2
Properties=species:S:1:pos:R:3:forces:R:3 energy=5.928836959551481 pbc="F F F"
Tb       0.00000000       0.00000000       0.00000000       0.00000000       0.00000000      -4.86982536
Tb       0.00000000       0.00000000       1.29696970       0.00000000       0.00000000       4.86982536
2
Properties=species:S:1:pos:R:3:forces:R:3 energy=5.3978467657909155 pbc="F F F"
Tb       0.00000000       0.00000000       0.00000000       0.00000000       0.00000000     -13.15880394
Tb       0.00000000       0.00000000       1.35575758       0.00000000       0.00000000      13.15880394
2
Properties=species:S:1:pos:R:3:forces:R:3 energy=4.415801514134628 pbc="F F F"
Tb       0.00000000       0.00000000       0.00000000       0.00000000       0.00000000     -19.70760345
Tb       0.00000000       0.00000000       1.41454545       0.00000000       0.00000000      19.70760345
2
Properties=species:S:1:pos:R:3:forces:R:3 energy=3.1710045254746344 pbc="F F F"
Tb       0.00000000       0.00000000       0.00000000       0.00000000       0.00000000     -21.69253540
Tb       0.00000000       0.00000000       1.47333333       0.00000000       0.00000000      21.69253540
2
Properties=species:S:1:pos:R:3:forces:R:3 energy=1.9843649371374423 pbc="F F F"
Tb       0.00000000       0.00000000       0.00000000       0.00000000       0.00000000     -17.71229362
Tb       0.00000000       0.00000000       1.53212121       0.00000000       0.00000000      17.71229362
2
Properties=species:S:1:pos:R:3:forces:R:3 energy=1.1740238214036158 pbc="F F F"
Tb       0.00000000       0.00000000       0.00000000       0.00000000       0.00000000      -9.47691345
Tb       0.00000000       0.00000000       1.59090909       0.00000000       0.00000000       9.47691345
2
Properties=species:S:1:pos:R:3:forces:R:3 energy=0.8655685336981658 pbc="F F F"
Tb       0.00000000       0.00000000       0.00000000       0.00000000       0.00000000      -1.43503809
Tb       0.00000000       0.00000000       1.64969697       0.00000000       0.00000000       1.43503809
2
Properties=species:S:1:pos:R:3:forces:R:3 energy=0.9297300053806523 pbc="F F F"
Tb       0.00000000       0.00000000       0.00000000       0.00000000       0.00000000       2.88002324
Tb       0.00000000       0.00000000       1.70848485       0.00000000       0.00000000      -2.88002324
2
Properties=species:S:1:pos:R:3:forces:R:3 energy=1.125200537605932 pbc="F F F"
Tb       0.00000000       0.00000000       0.00000000       0.00000000       0.00000000       3.23030901
Tb       0.00000000       0.00000000       1.76727273       0.00000000       0.00000000      -3.23030901
2
Properties=species:S:1:pos:R:3:forces:R:3 energy=1.2659132503658015 pbc="F F F"
Tb       0.00000000       0.00000000       0.00000000       0.00000000       0.00000000       1.34908664
Tb       0.00000000       0.00000000       1.82606061       0.00000000       0.00000000      -1.34908664
2
Properties=species:S:1:pos:R:3:forces:R:3 energy=1.275094766263669 pbc="F F F"
Tb       0.00000000       0.00000000       0.00000000       0.00000000       0.00000000      -1.00397015
Tb       0.00000000       0.00000000       1.88484848       0.00000000       0.00000000       1.00397015
2
Properties=species:S:1:pos:R:3:forces:R:3 energy=1.1593840660465233 pbc="F F F"
Tb       0.00000000       0.00000000       0.00000000       0.00000000       0.00000000      -2.79698038
Tb       0.00000000       0.00000000       1.94363636       0.00000000       0.00000000       2.79698038
2
Properties=species:S:1:pos:R:3:forces:R:3 energy=0.9626042191756329 pbc="F F F"
Tb       0.00000000       0.00000000       0.00000000       0.00000000       0.00000000      -3.76925802
Tb       0.00000000       0.00000000       2.00242424       0.00000000       0.00000000       3.76925802
2
Properties=species:S:1:pos:R:3:forces:R:3 energy=0.7289368423931667 pbc="F F F"
Tb       0.00000000       0.00000000       0.00000000       0.00000000       0.00000000      -4.09285498
Tb       0.00000000       0.00000000       2.06121212       0.00000000       0.00000000       4.09285498
2
Properties=species:S:1:pos:R:3:forces:R:3 energy=0.48932958009517 pbc="F F F"
Tb       0.00000000       0.00000000       0.00000000       0.00000000       0.00000000      -4.00984955
Tb       0.00000000       0.00000000       2.12000000       0.00000000       0.00000000       4.00984955
2
Properties=species:S:1:pos:R:3:forces:R:3 energy=0.2613134235989243 pbc="F F F"
Tb       0.00000000       0.00000000       0.00000000       0.00000000       0.00000000      -3.72874832
Tb       0.00000000       0.00000000       2.17878788       0.00000000       0.00000000       3.72874832
2
Properties=species:S:1:pos:R:3:forces:R:3 energy=0.0519113976331009 pbc="F F F"
Tb       0.00000000       0.00000000       0.00000000       0.00000000       0.00000000      -3.39469123
Tb       0.00000000       0.00000000       2.23757576       0.00000000       0.00000000       3.39469123
2
Properties=species:S:1:pos:R:3:forces:R:3 energy=-0.13833421007232527 pbc="F F F"
Tb       0.00000000       0.00000000       0.00000000       0.00000000       0.00000000      -3.08535385
Tb       0.00000000       0.00000000       2.29636364       0.00000000       0.00000000       3.08535385
2
Properties=species:S:1:pos:R:3:forces:R:3 energy=-0.3119712043059605 pbc="F F F"
Tb       0.00000000       0.00000000       0.00000000       0.00000000       0.00000000      -2.83235073
Tb       0.00000000       0.00000000       2.35515152       0.00000000       0.00000000       2.83235073
2
Properties=species:S:1:pos:R:3:forces:R:3 energy=-0.47258907489057317 pbc="F F F"
Tb       0.00000000       0.00000000       0.00000000       0.00000000       0.00000000      -2.64211249
Tb       0.00000000       0.00000000       2.41393939       0.00000000       0.00000000       2.64211249
2
Properties=species:S:1:pos:R:3:forces:R:3 energy=-0.6237188103980319 pbc="F F F"
Tb       0.00000000       0.00000000       0.00000000       0.00000000       0.00000000      -2.50766301
Tb       0.00000000       0.00000000       2.47272727       0.00000000       0.00000000       2.50766301
2
Properties=species:S:1:pos:R:3:forces:R:3 energy=-0.7682348035528498 pbc="F F F"
Tb       0.00000000       0.00000000       0.00000000       0.00000000       0.00000000      -2.41417217
Tb       0.00000000       0.00000000       2.53151515       0.00000000       0.00000000       2.41417217
2
Properties=species:S:1:pos:R:3:forces:R:3 energy=-0.9079968441448849 pbc="F F F"
Tb       0.00000000       0.00000000       0.00000000       0.00000000       0.00000000      -2.34262609
Tb       0.00000000       0.00000000       2.59030303       0.00000000       0.00000000       2.34262609
2
Properties=species:S:1:pos:R:3:forces:R:3 energy=-1.043719100516527 pbc="F F F"
Tb       0.00000000       0.00000000       0.00000000       0.00000000       0.00000000      -2.27369761
Tb       0.00000000       0.00000000       2.64909091       0.00000000       0.00000000       2.27369761
2
Properties=species:S:1:pos:R:3:forces:R:3 energy=-1.1750663416342504 pbc="F F F"
Tb       0.00000000       0.00000000       0.00000000       0.00000000       0.00000000      -2.19161701
Tb       0.00000000       0.00000000       2.70787879       0.00000000       0.00000000       2.19161701
2
Properties=species:S:1:pos:R:3:forces:R:3 energy=-1.300943319054893 pbc="F F F"
Tb       0.00000000       0.00000000       0.00000000       0.00000000       0.00000000      -2.08645082
Tb       0.00000000       0.00000000       2.76666667       0.00000000       0.00000000       2.08645082
2
Properties=species:S:1:pos:R:3:forces:R:3 energy=-1.4198450784301924 pbc="F F F"
Tb       0.00000000       0.00000000       0.00000000       0.00000000       0.00000000      -1.95401669
Tb       0.00000000       0.00000000       2.82545455       0.00000000       0.00000000       1.95401669
2
Properties=species:S:1:pos:R:3:forces:R:3 energy=-1.5301503870853148 pbc="F F F"
Tb       0.00000000       0.00000000       0.00000000       0.00000000       0.00000000      -1.79416203
Tb       0.00000000       0.00000000       2.88424242       0.00000000       0.00000000       1.79416203
2
Properties=species:S:1:pos:R:3:forces:R:3 energy=-1.6302965567778842 pbc="F F F"
Tb       0.00000000       0.00000000       0.00000000       0.00000000       0.00000000      -1.60887539
Tb       0.00000000       0.00000000       2.94303030       0.00000000       0.00000000       1.60887539
2
Properties=species:S:1:pos:R:3:forces:R:3 energy=-1.7188723129022343 pbc="F F F"
Tb       0.00000000       0.00000000       0.00000000       0.00000000       0.00000000      -1.40103769
Tb       0.00000000       0.00000000       3.00181818       0.00000000       0.00000000       1.40103769
2
Properties=species:S:1:pos:R:3:forces:R:3 energy=-1.7946454383732973 pbc="F F F"
Tb       0.00000000       0.00000000       0.00000000       0.00000000       0.00000000      -1.17388904
Tb       0.00000000       0.00000000       3.06060606       0.00000000       0.00000000       1.17388904
2
Properties=species:S:1:pos:R:3:forces:R:3 energy=-1.856582255425953 pbc="F F F"
Tb       0.00000000       0.00000000       0.00000000       0.00000000       0.00000000      -0.93089461
Tb       0.00000000       0.00000000       3.11939394       0.00000000       0.00000000       0.93089461
2
Properties=species:S:1:pos:R:3:forces:R:3 energy=-1.9038596709209676 pbc="F F F"
Tb       0.00000000       0.00000000       0.00000000       0.00000000       0.00000000      -0.67581648
Tb       0.00000000       0.00000000       3.17818182       0.00000000       0.00000000       0.67581648
2
Properties=species:S:1:pos:R:3:forces:R:3 energy=-1.9358936316872333 pbc="F F F"
Tb       0.00000000       0.00000000       0.00000000       0.00000000       0.00000000      -0.41321054
Tb       0.00000000       0.00000000       3.23696970       0.00000000       0.00000000       0.41321054
2
Properties=species:S:1:pos:R:3:forces:R:3 energy=-1.9524157864303344 pbc="F F F"
Tb       0.00000000       0.00000000       0.00000000       0.00000000       0.00000000      -0.14932917
Tb       0.00000000       0.00000000       3.29575758       0.00000000       0.00000000       0.14932917
2
Properties=species:S:1:pos:R:3:forces:R:3 energy=-1.9535975774352778 pbc="F F F"
Tb       0.00000000       0.00000000       0.00000000       0.00000000       0.00000000       0.10698148
Tb       0.00000000       0.00000000       3.35454545       0.00000000       0.00000000      -0.10698148
2
Properties=species:S:1:pos:R:3:forces:R:3 energy=-1.9402087889215947 pbc="F F F"
Tb       0.00000000       0.00000000       0.00000000       0.00000000       0.00000000       0.34428698
Tb       0.00000000       0.00000000       3.41333333       0.00000000       0.00000000      -0.34428698
2
Properties=species:S:1:pos:R:3:forces:R:3 energy=-1.9137367436616037 pbc="F F F"
Tb       0.00000000       0.00000000       0.00000000       0.00000000       0.00000000       0.55005425
Tb       0.00000000       0.00000000       3.47212121       0.00000000       0.00000000      -0.55005425
2
Properties=species:S:1:pos:R:3:forces:R:3 energy=-1.8763707677589028 pbc="F F F"
Tb       0.00000000       0.00000000       0.00000000       0.00000000       0.00000000       0.71339852
Tb       0.00000000       0.00000000       3.53090909       0.00000000       0.00000000      -0.71339852
2
Properties=species:S:1:pos:R:3:forces:R:3 energy=-1.8308159120462635 pbc="F F F"
Tb       0.00000000       0.00000000       0.00000000       0.00000000       0.00000000       0.82808369
Tb       0.00000000       0.00000000       3.58969697       0.00000000       0.00000000      -0.82808369
2
Properties=species:S:1:pos:R:3:forces:R:3 energy=-1.7799578726116856 pbc="F F F"
Tb       0.00000000       0.00000000       0.00000000       0.00000000       0.00000000       0.89450854
Tb       0.00000000       0.00000000       3.64848485       0.00000000       0.00000000      -0.89450854
2
Properties=species:S:1:pos:R:3:forces:R:3 energy=-1.7264526344098958 pbc="F F F"
Tb       0.00000000       0.00000000       0.00000000       0.00000000       0.00000000       0.91983968
Tb       0.00000000       0.00000000       3.70727273       0.00000000       0.00000000      -0.91983968
2
Properties=species:S:1:pos:R:3:forces:R:3 energy=-1.6723774466374297 pbc="F F F"
Tb       0.00000000       0.00000000       0.00000000       0.00000000       0.00000000       0.91611415
Tb       0.00000000       0.00000000       3.76606061       0.00000000       0.00000000      -0.91611415
2
Properties=species:S:1:pos:R:3:forces:R:3 energy=-1.6190398229402412 pbc="F F F"
Tb       0.00000000       0.00000000       0.00000000       0.00000000       0.00000000       0.89702064
Tb       0.00000000       0.00000000       3.82484848       0.00000000       0.00000000      -0.89702064
2
Properties=species:S:1:pos:R:3:forces:R:3 energy=-1.566973602339455 pbc="F F F"
Tb       0.00000000       0.00000000       0.00000000       0.00000000       0.00000000       0.87451637
Tb       0.00000000       0.00000000       3.88363636       0.00000000       0.00000000      -0.87451637
2
Properties=species:S:1:pos:R:3:forces:R:3 energy=-1.5161282472475295 pbc="F F F"
Tb       0.00000000       0.00000000       0.00000000       0.00000000       0.00000000       0.85640043
Tb       0.00000000       0.00000000       3.94242424       0.00000000       0.00000000      -0.85640043
2
Properties=species:S:1:pos:R:3:forces:R:3 energy=-1.4661397059810493 pbc="F F F"
Tb       0.00000000       0.00000000       0.00000000       0.00000000       0.00000000       0.84542435
Tb       0.00000000       0.00000000       4.00121212       0.00000000       0.00000000      -0.84542435
2
Properties=species:S:1:pos:R:3:forces:R:3 energy=-1.4166184730894331 pbc="F F F"
Tb       0.00000000       0.00000000       0.00000000       0.00000000       0.00000000       0.83989489
Tb       0.00000000       0.00000000       4.06000000       0.00000000       0.00000000      -0.83989489
2
Properties=species:S:1:pos:R:3:forces:R:3 energy=-1.3673698501081588 pbc="F F F"
Tb       0.00000000       0.00000000       0.00000000       0.00000000       0.00000000       0.83528185
Tb       0.00000000       0.00000000       4.11878788       0.00000000       0.00000000      -0.83528185
2
Properties=species:S:1:pos:R:3:forces:R:3 energy=-1.3184988382302312 pbc="F F F"
Tb       0.00000000       0.00000000       0.00000000       0.00000000       0.00000000       0.82612193
Tb       0.00000000       0.00000000       4.17757576       0.00000000       0.00000000      -0.82612193
2
Properties=species:S:1:pos:R:3:forces:R:3 energy=-1.270420051684148 pbc="F F F"
Tb       0.00000000       0.00000000       0.00000000       0.00000000       0.00000000       0.80768877
Tb       0.00000000       0.00000000       4.23636364       0.00000000       0.00000000      -0.80768877
2
Properties=species:S:1:pos:R:3:forces:R:3 energy=-1.2237727900345847 pbc="F F F"
Tb       0.00000000       0.00000000       0.00000000       0.00000000       0.00000000       0.77710247
Tb       0.00000000       0.00000000       4.29515152       0.00000000       0.00000000      -0.77710247
2
Properties=species:S:1:pos:R:3:forces:R:3 energy=-1.1793027405535548 pbc="F F F"
Tb       0.00000000       0.00000000       0.00000000       0.00000000       0.00000000       0.73382044
Tb       0.00000000       0.00000000       4.35393939       0.00000000       0.00000000      -0.73382044
2
Properties=species:S:1:pos:R:3:forces:R:3 energy=-1.1377097657966337 pbc="F F F"
Tb       0.00000000       0.00000000       0.00000000       0.00000000       0.00000000       0.67961961
Tb       0.00000000       0.00000000       4.41272727       0.00000000       0.00000000      -0.67961961
2
Properties=species:S:1:pos:R:3:forces:R:3 energy=-1.0995372278650546 pbc="F F F"
Tb       0.00000000       0.00000000       0.00000000       0.00000000       0.00000000       0.61820859
Tb       0.00000000       0.00000000       4.47151515       0.00000000       0.00000000      -0.61820859
2
Properties=species:S:1:pos:R:3:forces:R:3 energy=-1.0650672109437875 pbc="F F F"
Tb       0.00000000       0.00000000       0.00000000       0.00000000       0.00000000       0.55454624
Tb       0.00000000       0.00000000       4.53030303       0.00000000       0.00000000      -0.55454624
2
Properties=species:S:1:pos:R:3:forces:R:3 energy=-1.034274509099621 pbc="F F F"
Tb       0.00000000       0.00000000       0.00000000       0.00000000       0.00000000       0.49401629
Tb       0.00000000       0.00000000       4.58909091       0.00000000       0.00000000      -0.49401629
2
Properties=species:S:1:pos:R:3:forces:R:3 energy=-1.0068238692123666 pbc="F F F"
Tb       0.00000000       0.00000000       0.00000000       0.00000000       0.00000000       0.44158828
Tb       0.00000000       0.00000000       4.64787879       0.00000000       0.00000000      -0.44158828
2
Properties=species:S:1:pos:R:3:forces:R:3 energy=-0.9821200600444222 pbc="F F F"
Tb       0.00000000       0.00000000       0.00000000       0.00000000       0.00000000       0.40103960
Tb       0.00000000       0.00000000       4.70666667       0.00000000       0.00000000      -0.40103960
2
Properties=species:S:1:pos:R:3:forces:R:3 energy=-0.9593968455523355 pbc="F F F"
Tb       0.00000000       0.00000000       0.00000000       0.00000000       0.00000000       0.37441817
Tb       0.00000000       0.00000000       4.76545455       0.00000000       0.00000000      -0.37441817
2
Properties=species:S:1:pos:R:3:forces:R:3 energy=-0.9378233866813239 pbc="F F F"
Tb       0.00000000       0.00000000       0.00000000       0.00000000       0.00000000       0.36170676
Tb       0.00000000       0.00000000       4.82424242       0.00000000       0.00000000      -0.36170676
2
Properties=species:S:1:pos:R:3:forces:R:3 energy=-0.916637174978259 pbc="F F F"
Tb       0.00000000       0.00000000       0.00000000       0.00000000       0.00000000       0.36081260
Tb       0.00000000       0.00000000       4.88303030       0.00000000       0.00000000      -0.36081260
2
Properties=species:S:1:pos:R:3:forces:R:3 energy=-0.8952438234383082 pbc="F F F"
Tb       0.00000000       0.00000000       0.00000000       0.00000000       0.00000000       0.36789343
Tb       0.00000000       0.00000000       4.94181818       0.00000000       0.00000000      -0.36789343
2
Properties=species:S:1:pos:R:3:forces:R:3 energy=-0.8733201762047529 pbc="F F F"
Tb       0.00000000       0.00000000       0.00000000       0.00000000       0.00000000       0.37799874
Tb       0.00000000       0.00000000       5.00060606       0.00000000       0.00000000      -0.37799874
2
Properties=species:S:1:pos:R:3:forces:R:3 energy=-0.8508408934085095 pbc="F F F"
Tb       0.00000000       0.00000000       0.00000000       0.00000000       0.00000000       0.38600510
Tb       0.00000000       0.00000000       5.05939394       0.00000000       0.00000000      -0.38600510
2
Properties=species:S:1:pos:R:3:forces:R:3 energy=-0.8280622490401356 pbc="F F F"
Tb       0.00000000       0.00000000       0.00000000       0.00000000       0.00000000       0.38757056
Tb       0.00000000       0.00000000       5.11818182       0.00000000       0.00000000      -0.38757056
2
Properties=species:S:1:pos:R:3:forces:R:3 energy=-0.8054555194674999 pbc="F F F"
Tb       0.00000000       0.00000000       0.00000000       0.00000000       0.00000000       0.37989965
Tb       0.00000000       0.00000000       5.17696970       0.00000000       0.00000000      -0.37989965
2
Properties=species:S:1:pos:R:3:forces:R:3 energy=-0.7835970332889991 pbc="F F F"
Tb       0.00000000       0.00000000       0.00000000       0.00000000       0.00000000       0.36210778
Tb       0.00000000       0.00000000       5.23575758       0.00000000       0.00000000      -0.36210778
2
Properties=species:S:1:pos:R:3:forces:R:3 energy=-0.7630636538809964 pbc="F F F"
Tb       0.00000000       0.00000000       0.00000000       0.00000000       0.00000000       0.33509085
Tb       0.00000000       0.00000000       5.29454545       0.00000000       0.00000000      -0.33509085
2
Properties=species:S:1:pos:R:3:forces:R:3 energy=-0.744335339890797 pbc="F F F"
Tb       0.00000000       0.00000000       0.00000000       0.00000000       0.00000000       0.30107898
Tb       0.00000000       0.00000000       5.35333333       0.00000000       0.00000000      -0.30107898
2
Properties=species:S:1:pos:R:3:forces:R:3 energy=-0.7277416101781974 pbc="F F F"
Tb       0.00000000       0.00000000       0.00000000       0.00000000       0.00000000       0.26299775
Tb       0.00000000       0.00000000       5.41212121       0.00000000       0.00000000      -0.26299775
2
Properties=species:S:1:pos:R:3:forces:R:3 energy=-0.7134346621206911 pbc="F F F"
Tb       0.00000000       0.00000000       0.00000000       0.00000000       0.00000000       0.22379680
Tb       0.00000000       0.00000000       5.47090909       0.00000000       0.00000000      -0.22379680
2
Properties=species:S:1:pos:R:3:forces:R:3 energy=-0.7014013230526936 pbc="F F F"
Tb       0.00000000       0.00000000       0.00000000       0.00000000       0.00000000       0.18596560
Tb       0.00000000       0.00000000       5.52969697       0.00000000       0.00000000      -0.18596560
2
Properties=species:S:1:pos:R:3:forces:R:3 energy=-0.6915076892247289 pbc="F F F"
Tb       0.00000000       0.00000000       0.00000000       0.00000000       0.00000000       0.15126809
Tb       0.00000000       0.00000000       5.58848485       0.00000000       0.00000000      -0.15126809
2
Properties=species:S:1:pos:R:3:forces:R:3 energy=-0.6835341339047973 pbc="F F F"
Tb       0.00000000       0.00000000       0.00000000       0.00000000       0.00000000       0.12074104
Tb       0.00000000       0.00000000       5.64727273       0.00000000       0.00000000      -0.12074104
2
Properties=species:S:1:pos:R:3:forces:R:3 energy=-0.6772234555080074 pbc="F F F"
Tb       0.00000000       0.00000000       0.00000000       0.00000000       0.00000000       0.09477958
Tb       0.00000000       0.00000000       5.70606061       0.00000000       0.00000000      -0.09477958
2
Properties=species:S:1:pos:R:3:forces:R:3 energy=-0.6722966639079514 pbc="F F F"
Tb       0.00000000       0.00000000       0.00000000       0.00000000       0.00000000       0.07340619
Tb       0.00000000       0.00000000       5.76484848       0.00000000       0.00000000      -0.07340619
2
Properties=species:S:1:pos:R:3:forces:R:3 energy=-0.6685021542686445 pbc="F F F"
Tb       0.00000000       0.00000000       0.00000000       0.00000000       0.00000000       0.05651474
Tb       0.00000000       0.00000000       5.82363636       0.00000000       0.00000000      -0.05651474
2
Properties=species:S:1:pos:R:3:forces:R:3 energy=-0.6655698154677882 pbc="F F F"
Tb       0.00000000       0.00000000       0.00000000       0.00000000       0.00000000       0.04405146
Tb       0.00000000       0.00000000       5.88242424       0.00000000       0.00000000      -0.04405146
2
Properties=species:S:1:pos:R:3:forces:R:3 energy=-0.6632340101472062 pbc="F F F"
Tb       0.00000000       0.00000000       0.00000000       0.00000000       0.00000000       0.03611791
Tb       0.00000000       0.00000000       5.94121212       0.00000000       0.00000000      -0.03611791
2
Properties=species:S:1:pos:R:3:forces:R:3 energy=-0.6612280055543273 pbc="F F F"
Tb       0.00000000       0.00000000       0.00000000       0.00000000       0.00000000       0.03298599
Tb       0.00000000       0.00000000       6.00000000       0.00000000       0.00000000      -0.03298599
