2
Properties=species:S:1:pos:R:3:forces:R:3 energy=3644.6453805086326 pbc="F F F"
V        0.00000000       0.00000000       0.00000000       0.00000000       0.00000000  -45641.83593750
V        0.00000000       0.00000000       0.18000000       0.00000000       0.00000000   45641.83593750
2
Properties=species:S:1:pos:R:3:forces:R:3 energy=1973.3206734773828 pbc="F F F"
V        0.00000000       0.00000000       0.00000000       0.00000000       0.00000000  -16870.14843750
V        0.00000000       0.00000000       0.23878788       0.00000000       0.00000000   16870.14843750
2
Properties=species:S:1:pos:R:3:forces:R:3 energy=1306.6304879305078 pbc="F F F"
V        0.00000000       0.00000000       0.00000000       0.00000000       0.00000000   -7367.91992188
V        0.00000000       0.00000000       0.29757576       0.00000000       0.00000000    7367.91992188
2
Properties=species:S:1:pos:R:3:forces:R:3 energy=998.6877389134058 pbc="F F F"
V        0.00000000       0.00000000       0.00000000       0.00000000       0.00000000   -3642.99169922
V        0.00000000       0.00000000       0.35636364       0.00000000       0.00000000    3642.99169922
2
Properties=species:S:1:pos:R:3:forces:R:3 energy=838.0144601048121 pbc="F F F"
V        0.00000000       0.00000000       0.00000000       0.00000000       0.00000000   -2040.64270020
V        0.00000000       0.00000000       0.41515152       0.00000000       0.00000000    2040.64270020
2
Properties=species:S:1:pos:R:3:forces:R:3 energy=741.2091622722565 pbc="F F F"
V        0.00000000       0.00000000       0.00000000       0.00000000       0.00000000   -1355.31018066
V        0.00000000       0.00000000       0.47393939       0.00000000       0.00000000    1355.31018066
2
Properties=species:S:1:pos:R:3:forces:R:3 energy=669.7808786061929 pbc="F F F"
V        0.00000000       0.00000000       0.00000000       0.00000000       0.00000000   -1130.98327637
V        0.00000000       0.00000000       0.53272727       0.00000000       0.00000000    1130.98327637
2
Properties=species:S:1:pos:R:3:forces:R:3 energy=603.0148874396049 pbc="F F F"
V        0.00000000       0.00000000       0.00000000       0.00000000       0.00000000   -1175.70275879
V        0.00000000       0.00000000       0.59151515       0.00000000       0.00000000    1175.70275879
2
Properties=species:S:1:pos:R:3:forces:R:3 energy=528.2512766757889 pbc="F F F"
V        0.00000000       0.00000000       0.00000000       0.00000000       0.00000000   -1388.78247070
V        0.00000000       0.00000000       0.65030303       0.00000000       0.00000000    1388.78247070
2
Properties=species:S:1:pos:R:3:forces:R:3 energy=438.2071178669549 pbc="F F F"
V        0.00000000       0.00000000       0.00000000       0.00000000       0.00000000   -1678.19702148
V        0.00000000       0.00000000       0.70909091       0.00000000       0.00000000    1678.19702148
2
Properties=species:S:1:pos:R:3:forces:R:3 energy=331.90392591835234 pbc="F F F"
V        0.00000000       0.00000000       0.00000000       0.00000000       0.00000000   -1917.74169922
V        0.00000000       0.00000000       0.76787879       0.00000000       0.00000000    1917.74169922
2
Properties=species:S:1:pos:R:3:forces:R:3 energy=220.4859116707535 pbc="F F F"
V        0.00000000       0.00000000       0.00000000       0.00000000       0.00000000   -1534.97644043
V        0.00000000       0.00000000       0.82666667       0.00000000       0.00000000    1534.97644043
2
Properties=species:S:1:pos:R:3:forces:R:3 energy=132.9238087984147 pbc="F F F"
V        0.00000000       0.00000000       0.00000000       0.00000000       0.00000000   -1340.48254395
V        0.00000000       0.00000000       0.88545455       0.00000000       0.00000000    1340.48254395
2
Properties=species:S:1:pos:R:3:forces:R:3 energy=66.3640330561347 pbc="F F F"
V        0.00000000       0.00000000       0.00000000       0.00000000       0.00000000    -960.46496582
V        0.00000000       0.00000000       0.94424242       0.00000000       0.00000000     960.46496582
2
Properties=species:S:1:pos:R:3:forces:R:3 energy=24.463826303216415 pbc="F F F"
V        0.00000000       0.00000000       0.00000000       0.00000000       0.00000000    -496.59713745
V        0.00000000       0.00000000       1.00303030       0.00000000       0.00000000     496.59713745
2
Properties=species:S:1:pos:R:3:forces:R:3 energy=9.206375324818037 pbc="F F F"
V        0.00000000       0.00000000       0.00000000       0.00000000       0.00000000    -126.47480774
V        0.00000000       0.00000000       1.06181818       0.00000000       0.00000000     126.47480774
2
Properties=species:S:1:pos:R:3:forces:R:3 energy=2.7527286156259443 pbc="F F F"
V        0.00000000       0.00000000       0.00000000       0.00000000       0.00000000     -97.13040924
V        0.00000000       0.00000000       1.12060606       0.00000000       0.00000000      97.13040924
2
Properties=species:S:1:pos:R:3:forces:R:3 energy=-2.4816097696028825 pbc="F F F"
V        0.00000000       0.00000000       0.00000000       0.00000000       0.00000000     -76.75968170
V        0.00000000       0.00000000       1.17939394       0.00000000       0.00000000      76.75968170
2
Properties=species:S:1:pos:R:3:forces:R:3 energy=-5.698713780401456 pbc="F F F"
V        0.00000000       0.00000000       0.00000000       0.00000000       0.00000000     -34.82153702
V        0.00000000       0.00000000       1.23818182       0.00000000       0.00000000      34.82153702
2
Properties=species:S:1:pos:R:3:forces:R:3 energy=-7.1485489577814985 pbc="F F F"
V        0.00000000       0.00000000       0.00000000       0.00000000       0.00000000     -18.46630096
V        0.00000000       0.00000000       1.29696970       0.00000000       0.00000000      18.46630096
2
Properties=species:S:1:pos:R:3:forces:R:3 energy=-8.090062057958201 pbc="F F F"
V        0.00000000       0.00000000       0.00000000       0.00000000       0.00000000     -14.00468540
V        0.00000000       0.00000000       1.35575758       0.00000000       0.00000000      14.00468540
2
Properties=species:S:1:pos:R:3:forces:R:3 energy=-8.795918423181325 pbc="F F F"
V        0.00000000       0.00000000       0.00000000       0.00000000       0.00000000      -9.92753601
V        0.00000000       0.00000000       1.41454545       0.00000000       0.00000000       9.92753601
2
Properties=species:S:1:pos:R:3:forces:R:3 energy=-9.254064361025197 pbc="F F F"
V        0.00000000       0.00000000       0.00000000       0.00000000       0.00000000      -5.68506813
V        0.00000000       0.00000000       1.47333333       0.00000000       0.00000000       5.68506813
2
Properties=species:S:1:pos:R:3:forces:R:3 energy=-9.475794987352712 pbc="F F F"
V        0.00000000       0.00000000       0.00000000       0.00000000       0.00000000      -2.03886843
V        0.00000000       0.00000000       1.53212121       0.00000000       0.00000000       2.03886843
2
Properties=species:S:1:pos:R:3:forces:R:3 energy=-9.520553547896593 pbc="F F F"
V        0.00000000       0.00000000       0.00000000       0.00000000       0.00000000       0.28759101
V        0.00000000       0.00000000       1.59090909       0.00000000       0.00000000      -0.28759101
2
Properties=species:S:1:pos:R:3:forces:R:3 energy=-9.46464419328283 pbc="F F F"
V        0.00000000       0.00000000       0.00000000       0.00000000       0.00000000       1.45602548
V        0.00000000       0.00000000       1.64969697       0.00000000       0.00000000      -1.45602548
2
Properties=species:S:1:pos:R:3:forces:R:3 energy=-9.364716749465439 pbc="F F F"
V        0.00000000       0.00000000       0.00000000       0.00000000       0.00000000       1.84215832
V        0.00000000       0.00000000       1.70848485       0.00000000       0.00000000      -1.84215832
2
Properties=species:S:1:pos:R:3:forces:R:3 energy=-9.256298268355458 pbc="F F F"
V        0.00000000       0.00000000       0.00000000       0.00000000       0.00000000       1.80433702
V        0.00000000       0.00000000       1.76727273       0.00000000       0.00000000      -1.80433702
2
Properties=species:S:1:pos:R:3:forces:R:3 energy=-9.155429437913249 pbc="F F F"
V        0.00000000       0.00000000       0.00000000       0.00000000       0.00000000       1.61294258
V        0.00000000       0.00000000       1.82606061       0.00000000       0.00000000      -1.61294258
2
Properties=species:S:1:pos:R:3:forces:R:3 energy=-9.068053569149937 pbc="F F F"
V        0.00000000       0.00000000       0.00000000       0.00000000       0.00000000       1.34831226
V        0.00000000       0.00000000       1.88484848       0.00000000       0.00000000      -1.34831226
2
Properties=species:S:1:pos:R:3:forces:R:3 energy=-8.998018500185717 pbc="F F F"
V        0.00000000       0.00000000       0.00000000       0.00000000       0.00000000       1.02907014
V        0.00000000       0.00000000       1.94363636       0.00000000       0.00000000      -1.02907014
2
Properties=species:S:1:pos:R:3:forces:R:3 energy=-8.946754387379414 pbc="F F F"
V        0.00000000       0.00000000       0.00000000       0.00000000       0.00000000       0.72706652
V        0.00000000       0.00000000       2.00242424       0.00000000       0.00000000      -0.72706652
2
Properties=species:S:1:pos:R:3:forces:R:3 energy=-8.909983614308246 pbc="F F F"
V        0.00000000       0.00000000       0.00000000       0.00000000       0.00000000       0.55330914
V        0.00000000       0.00000000       2.06121212       0.00000000       0.00000000      -0.55330914
2
Properties=species:S:1:pos:R:3:forces:R:3 energy=-8.877898412617478 pbc="F F F"
V        0.00000000       0.00000000       0.00000000       0.00000000       0.00000000       0.56921047
V        0.00000000       0.00000000       2.12000000       0.00000000       0.00000000      -0.56921047
2
Properties=species:S:1:pos:R:3:forces:R:3 energy=-8.840368674402006 pbc="F F F"
V        0.00000000       0.00000000       0.00000000       0.00000000       0.00000000       0.71858484
V        0.00000000       0.00000000       2.17878788       0.00000000       0.00000000      -0.71858484
2
Properties=species:S:1:pos:R:3:forces:R:3 energy=-8.793986046821372 pbc="F F F"
V        0.00000000       0.00000000       0.00000000       0.00000000       0.00000000       0.83768541
V        0.00000000       0.00000000       2.23757576       0.00000000       0.00000000      -0.83768541
2
Properties=species:S:1:pos:R:3:forces:R:3 energy=-8.746199506791406 pbc="F F F"
V        0.00000000       0.00000000       0.00000000       0.00000000       0.00000000       0.73941398
V        0.00000000       0.00000000       2.29636364       0.00000000       0.00000000      -0.73941398
2
Properties=species:S:1:pos:R:3:forces:R:3 energy=-8.713255372816532 pbc="F F F"
V        0.00000000       0.00000000       0.00000000       0.00000000       0.00000000       0.33113119
V        0.00000000       0.00000000       2.35515152       0.00000000       0.00000000      -0.33113119
2
Properties=species:S:1:pos:R:3:forces:R:3 energy=-8.711609535864122 pbc="F F F"
V        0.00000000       0.00000000       0.00000000       0.00000000       0.00000000      -0.29222208
V        0.00000000       0.00000000       2.41393939       0.00000000       0.00000000       0.29222208
2
Properties=species:S:1:pos:R:3:forces:R:3 energy=-8.746537924498403 pbc="F F F"
V        0.00000000       0.00000000       0.00000000       0.00000000       0.00000000      -0.85992026
V        0.00000000       0.00000000       2.47272727       0.00000000       0.00000000       0.85992026
2
Properties=species:S:1:pos:R:3:forces:R:3 energy=-8.805825877013016 pbc="F F F"
V        0.00000000       0.00000000       0.00000000       0.00000000       0.00000000      -1.08260441
V        0.00000000       0.00000000       2.53151515       0.00000000       0.00000000       1.08260441
2
Properties=species:S:1:pos:R:3:forces:R:3 energy=-8.864668080587023 pbc="F F F"
V        0.00000000       0.00000000       0.00000000       0.00000000       0.00000000      -0.84627765
V        0.00000000       0.00000000       2.59030303       0.00000000       0.00000000       0.84627765
2
Properties=species:S:1:pos:R:3:forces:R:3 energy=-8.898494230628408 pbc="F F F"
V        0.00000000       0.00000000       0.00000000       0.00000000       0.00000000      -0.26512647
V        0.00000000       0.00000000       2.64909091       0.00000000       0.00000000       0.26512647
2
Properties=species:S:1:pos:R:3:forces:R:3 energy=-8.893590261116774 pbc="F F F"
V        0.00000000       0.00000000       0.00000000       0.00000000       0.00000000       0.43219626
V        0.00000000       0.00000000       2.70787879       0.00000000       0.00000000      -0.43219626
2
Properties=species:S:1:pos:R:3:forces:R:3 energy=-8.84937254802682 pbc="F F F"
V        0.00000000       0.00000000       0.00000000       0.00000000       0.00000000       1.04670691
V        0.00000000       0.00000000       2.76666667       0.00000000       0.00000000      -1.04670691
2
Properties=species:S:1:pos:R:3:forces:R:3 energy=-8.774158840959743 pbc="F F F"
V        0.00000000       0.00000000       0.00000000       0.00000000       0.00000000       1.47898412
V        0.00000000       0.00000000       2.82545455       0.00000000       0.00000000      -1.47898412
2
Properties=species:S:1:pos:R:3:forces:R:3 energy=-8.679158195646588 pbc="F F F"
V        0.00000000       0.00000000       0.00000000       0.00000000       0.00000000       1.72510695
V        0.00000000       0.00000000       2.88424242       0.00000000       0.00000000      -1.72510695
2
Properties=species:S:1:pos:R:3:forces:R:3 energy=-8.574150971456131 pbc="F F F"
V        0.00000000       0.00000000       0.00000000       0.00000000       0.00000000       1.82654905
V        0.00000000       0.00000000       2.94303030       0.00000000       0.00000000      -1.82654905
2
Properties=species:S:1:pos:R:3:forces:R:3 energy=-8.466610142849285 pbc="F F F"
V        0.00000000       0.00000000       0.00000000       0.00000000       0.00000000       1.81494260
V        0.00000000       0.00000000       3.00181818       0.00000000       0.00000000      -1.81494260
2
Properties=species:S:1:pos:R:3:forces:R:3 energy=-8.362523456185409 pbc="F F F"
V        0.00000000       0.00000000       0.00000000       0.00000000       0.00000000       1.71398044
V        0.00000000       0.00000000       3.06060606       0.00000000       0.00000000      -1.71398044
2
Properties=species:S:1:pos:R:3:forces:R:3 energy=-8.26611202135821 pbc="F F F"
V        0.00000000       0.00000000       0.00000000       0.00000000       0.00000000       1.56071079
V        0.00000000       0.00000000       3.11939394       0.00000000       0.00000000      -1.56071079
2
Properties=species:S:1:pos:R:3:forces:R:3 energy=-8.179303238014558 pbc="F F F"
V        0.00000000       0.00000000       0.00000000       0.00000000       0.00000000       1.39243042
V        0.00000000       0.00000000       3.17818182       0.00000000       0.00000000      -1.39243042
2
Properties=species:S:1:pos:R:3:forces:R:3 energy=-8.102236906059089 pbc="F F F"
V        0.00000000       0.00000000       0.00000000       0.00000000       0.00000000       1.23182070
V        0.00000000       0.00000000       3.23696970       0.00000000       0.00000000      -1.23182070
2
Properties=species:S:1:pos:R:3:forces:R:3 energy=-8.034119513588898 pbc="F F F"
V        0.00000000       0.00000000       0.00000000       0.00000000       0.00000000       1.08902848
V        0.00000000       0.00000000       3.29575758       0.00000000       0.00000000      -1.08902848
2
Properties=species:S:1:pos:R:3:forces:R:3 energy=-7.973749309512271 pbc="F F F"
V        0.00000000       0.00000000       0.00000000       0.00000000       0.00000000       0.96889079
V        0.00000000       0.00000000       3.35454545       0.00000000       0.00000000      -0.96889079
2
Properties=species:S:1:pos:R:3:forces:R:3 energy=-7.919689204168297 pbc="F F F"
V        0.00000000       0.00000000       0.00000000       0.00000000       0.00000000       0.87482196
V        0.00000000       0.00000000       3.41333333       0.00000000       0.00000000      -0.87482196
2
Properties=species:S:1:pos:R:3:forces:R:3 energy=-7.870345223668531 pbc="F F F"
V        0.00000000       0.00000000       0.00000000       0.00000000       0.00000000       0.80844694
V        0.00000000       0.00000000       3.47212121       0.00000000       0.00000000      -0.80844694
2
Properties=species:S:1:pos:R:3:forces:R:3 energy=-7.82413861419499 pbc="F F F"
V        0.00000000       0.00000000       0.00000000       0.00000000       0.00000000       0.76722813
V        0.00000000       0.00000000       3.53090909       0.00000000       0.00000000      -0.76722813
2
Properties=species:S:1:pos:R:3:forces:R:3 energy=-7.779803869256434 pbc="F F F"
V        0.00000000       0.00000000       0.00000000       0.00000000       0.00000000       0.74291670
V        0.00000000       0.00000000       3.58969697       0.00000000       0.00000000      -0.74291670
2
Properties=species:S:1:pos:R:3:forces:R:3 energy=-7.736706574004603 pbc="F F F"
V        0.00000000       0.00000000       0.00000000       0.00000000       0.00000000       0.72280502
V        0.00000000       0.00000000       3.64848485       0.00000000       0.00000000      -0.72280502
2
Properties=species:S:1:pos:R:3:forces:R:3 energy=-7.695001349047504 pbc="F F F"
V        0.00000000       0.00000000       0.00000000       0.00000000       0.00000000       0.69354761
V        0.00000000       0.00000000       3.70727273       0.00000000       0.00000000      -0.69354761
2
Properties=species:S:1:pos:R:3:forces:R:3 energy=-7.655533609323535 pbc="F F F"
V        0.00000000       0.00000000       0.00000000       0.00000000       0.00000000       0.64556587
V        0.00000000       0.00000000       3.76606061       0.00000000       0.00000000      -0.64556587
2
Properties=species:S:1:pos:R:3:forces:R:3 energy=-7.6195296326199395 pbc="F F F"
V        0.00000000       0.00000000       0.00000000       0.00000000       0.00000000       0.57579255
V        0.00000000       0.00000000       3.82484848       0.00000000       0.00000000      -0.57579255
2
Properties=species:S:1:pos:R:3:forces:R:3 energy=-7.588195995689147 pbc="F F F"
V        0.00000000       0.00000000       0.00000000       0.00000000       0.00000000       0.48770326
V        0.00000000       0.00000000       3.88363636       0.00000000       0.00000000      -0.48770326
2
Properties=species:S:1:pos:R:3:forces:R:3 energy=-7.562392045805725 pbc="F F F"
V        0.00000000       0.00000000       0.00000000       0.00000000       0.00000000       0.38922498
V        0.00000000       0.00000000       3.94242424       0.00000000       0.00000000      -0.38922498
2
Properties=species:S:1:pos:R:3:forces:R:3 energy=-7.542450627337988 pbc="F F F"
V        0.00000000       0.00000000       0.00000000       0.00000000       0.00000000       0.28980920
V        0.00000000       0.00000000       4.00121212       0.00000000       0.00000000      -0.28980920
2
Properties=species:S:1:pos:R:3:forces:R:3 energy=-7.528167318897814 pbc="F F F"
V        0.00000000       0.00000000       0.00000000       0.00000000       0.00000000       0.19798544
V        0.00000000       0.00000000       4.06000000       0.00000000       0.00000000      -0.19798544
2
Properties=species:S:1:pos:R:3:forces:R:3 energy=-7.51890053580181 pbc="F F F"
V        0.00000000       0.00000000       0.00000000       0.00000000       0.00000000       0.11994775
V        0.00000000       0.00000000       4.11878788       0.00000000       0.00000000      -0.11994775
2
Properties=species:S:1:pos:R:3:forces:R:3 energy=-7.513725271368897 pbc="F F F"
V        0.00000000       0.00000000       0.00000000       0.00000000       0.00000000       0.05914089
V        0.00000000       0.00000000       4.17757576       0.00000000       0.00000000      -0.05914089
2
Properties=species:S:1:pos:R:3:forces:R:3 energy=-7.511589040014142 pbc="F F F"
V        0.00000000       0.00000000       0.00000000       0.00000000       0.00000000       0.01652306
V        0.00000000       0.00000000       4.23636364       0.00000000       0.00000000      -0.01652306
2
Properties=species:S:1:pos:R:3:forces:R:3 energy=-7.511444190888607 pbc="F F F"
V        0.00000000       0.00000000       0.00000000       0.00000000       0.00000000      -0.00888494
V        0.00000000       0.00000000       4.29515152       0.00000000       0.00000000       0.00888494
2
Properties=species:S:1:pos:R:3:forces:R:3 energy=-7.512341253920764 pbc="F F F"
V        0.00000000       0.00000000       0.00000000       0.00000000       0.00000000      -0.01939753
V        0.00000000       0.00000000       4.35393939       0.00000000       0.00000000       0.01939753
2
Properties=species:S:1:pos:R:3:forces:R:3 energy=-7.513493339839261 pbc="F F F"
V        0.00000000       0.00000000       0.00000000       0.00000000       0.00000000      -0.01810535
V        0.00000000       0.00000000       4.41272727       0.00000000       0.00000000       0.01810535
2
Properties=species:S:1:pos:R:3:forces:R:3 energy=-7.514305391966329 pbc="F F F"
V        0.00000000       0.00000000       0.00000000       0.00000000       0.00000000      -0.00838796
V        0.00000000       0.00000000       4.47151515       0.00000000       0.00000000       0.00838796
2
Properties=species:S:1:pos:R:3:forces:R:3 energy=-7.51437859979328 pbc="F F F"
V        0.00000000       0.00000000       0.00000000       0.00000000       0.00000000       0.00649094
V        0.00000000       0.00000000       4.53030303       0.00000000       0.00000000      -0.00649094
2
Properties=species:S:1:pos:R:3:forces:R:3 energy=-7.513496870142037 pbc="F F F"
V        0.00000000       0.00000000       0.00000000       0.00000000       0.00000000       0.02368719
V        0.00000000       0.00000000       4.58909091       0.00000000       0.00000000      -0.02368719
2
Properties=species:S:1:pos:R:3:forces:R:3 energy=-7.51159262960211 pbc="F F F"
V        0.00000000       0.00000000       0.00000000       0.00000000       0.00000000       0.04095722
V        0.00000000       0.00000000       4.64787879       0.00000000       0.00000000      -0.04095722
2
Properties=species:S:1:pos:R:3:forces:R:3 energy=-7.508711538580894 pbc="F F F"
V        0.00000000       0.00000000       0.00000000       0.00000000       0.00000000       0.05670647
V        0.00000000       0.00000000       4.70666667       0.00000000       0.00000000      -0.05670647
2
Properties=species:S:1:pos:R:3:forces:R:3 energy=-7.504975420046396 pbc="F F F"
V        0.00000000       0.00000000       0.00000000       0.00000000       0.00000000       0.06992668
V        0.00000000       0.00000000       4.76545455       0.00000000       0.00000000      -0.06992668
2
Properties=species:S:1:pos:R:3:forces:R:3 energy=-7.50054980925791 pbc="F F F"
V        0.00000000       0.00000000       0.00000000       0.00000000       0.00000000       0.08009446
V        0.00000000       0.00000000       4.82424242       0.00000000       0.00000000      -0.08009446
2
Properties=species:S:1:pos:R:3:forces:R:3 energy=-7.4956213270076715 pbc="F F F"
V        0.00000000       0.00000000       0.00000000       0.00000000       0.00000000       0.08705713
V        0.00000000       0.00000000       4.88303030       0.00000000       0.00000000      -0.08705713
2
Properties=species:S:1:pos:R:3:forces:R:3 energy=-7.490374206894152 pbc="F F F"
V        0.00000000       0.00000000       0.00000000       0.00000000       0.00000000       0.09095588
V        0.00000000       0.00000000       4.94181818       0.00000000       0.00000000      -0.09095588
2
Properties=species:S:1:pos:R:3:forces:R:3 energy=-7.484979751051602 pbc="F F F"
V        0.00000000       0.00000000       0.00000000       0.00000000       0.00000000       0.09214857
V        0.00000000       0.00000000       5.00060606       0.00000000       0.00000000      -0.09214857
2
Properties=species:S:1:pos:R:3:forces:R:3 energy=-7.479583048401713 pbc="F F F"
V        0.00000000       0.00000000       0.00000000       0.00000000       0.00000000       0.09113768
V        0.00000000       0.00000000       5.05939394       0.00000000       0.00000000      -0.09113768
2
Properties=species:S:1:pos:R:3:forces:R:3 energy=-7.4742965730299336 pbc="F F F"
V        0.00000000       0.00000000       0.00000000       0.00000000       0.00000000       0.08847575
V        0.00000000       0.00000000       5.11818182       0.00000000       0.00000000      -0.08847575
2
Properties=species:S:1:pos:R:3:forces:R:3 energy=-7.469202717258913 pbc="F F F"
V        0.00000000       0.00000000       0.00000000       0.00000000       0.00000000       0.08466996
V        0.00000000       0.00000000       5.17696970       0.00000000       0.00000000      -0.08466996
2
Properties=species:S:1:pos:R:3:forces:R:3 energy=-7.464356172666461 pbc="F F F"
V        0.00000000       0.00000000       0.00000000       0.00000000       0.00000000       0.08011566
V        0.00000000       0.00000000       5.23575758       0.00000000       0.00000000      -0.08011566
2
Properties=species:S:1:pos:R:3:forces:R:3 energy=-7.459793072354935 pbc="F F F"
V        0.00000000       0.00000000       0.00000000       0.00000000       0.00000000       0.07507305
V        0.00000000       0.00000000       5.29454545       0.00000000       0.00000000      -0.07507305
2
Properties=species:S:1:pos:R:3:forces:R:3 energy=-7.455535822679263 pbc="F F F"
V        0.00000000       0.00000000       0.00000000       0.00000000       0.00000000       0.06969491
V        0.00000000       0.00000000       5.35333333       0.00000000       0.00000000      -0.06969491
2
Properties=species:S:1:pos:R:3:forces:R:3 energy=-7.451603132666375 pbc="F F F"
V        0.00000000       0.00000000       0.00000000       0.00000000       0.00000000       0.06407282
V        0.00000000       0.00000000       5.41212121       0.00000000       0.00000000      -0.06407282
2
Properties=species:S:1:pos:R:3:forces:R:3 energy=-7.448005906214467 pbc="F F F"
V        0.00000000       0.00000000       0.00000000       0.00000000       0.00000000       0.05828566
V        0.00000000       0.00000000       5.47090909       0.00000000       0.00000000      -0.05828566
2
Properties=species:S:1:pos:R:3:forces:R:3 energy=-7.444751565305646 pbc="F F F"
V        0.00000000       0.00000000       0.00000000       0.00000000       0.00000000       0.05242495
V        0.00000000       0.00000000       5.52969697       0.00000000       0.00000000      -0.05242495
2
Properties=species:S:1:pos:R:3:forces:R:3 energy=-7.441840756495329 pbc="F F F"
V        0.00000000       0.00000000       0.00000000       0.00000000       0.00000000       0.04661052
V        0.00000000       0.00000000       5.58848485       0.00000000       0.00000000      -0.04661052
2
Properties=species:S:1:pos:R:3:forces:R:3 energy=-7.439267556820685 pbc="F F F"
V        0.00000000       0.00000000       0.00000000       0.00000000       0.00000000       0.04098070
V        0.00000000       0.00000000       5.64727273       0.00000000       0.00000000      -0.04098070
2
Properties=species:S:1:pos:R:3:forces:R:3 energy=-7.437016562092533 pbc="F F F"
V        0.00000000       0.00000000       0.00000000       0.00000000       0.00000000       0.03568275
V        0.00000000       0.00000000       5.70606061       0.00000000       0.00000000      -0.03568275
2
Properties=species:S:1:pos:R:3:forces:R:3 energy=-7.435062042510888 pbc="F F F"
V        0.00000000       0.00000000       0.00000000       0.00000000       0.00000000       0.03086008
V        0.00000000       0.00000000       5.76484848       0.00000000       0.00000000      -0.03086008
2
Properties=species:S:1:pos:R:3:forces:R:3 energy=-7.433375255197353 pbc="F F F"
V        0.00000000       0.00000000       0.00000000       0.00000000       0.00000000       0.02665681
V        0.00000000       0.00000000       5.82363636       0.00000000       0.00000000      -0.02665681
2
Properties=species:S:1:pos:R:3:forces:R:3 energy=-7.431914333996219 pbc="F F F"
V        0.00000000       0.00000000       0.00000000       0.00000000       0.00000000       0.02320223
V        0.00000000       0.00000000       5.88242424       0.00000000       0.00000000      -0.02320223
2
Properties=species:S:1:pos:R:3:forces:R:3 energy=-7.430630166743652 pbc="F F F"
V        0.00000000       0.00000000       0.00000000       0.00000000       0.00000000       0.02061716
V        0.00000000       0.00000000       5.94121212       0.00000000       0.00000000      -0.02061716
2
Properties=species:S:1:pos:R:3:forces:R:3 energy=-7.429470718480337 pbc="F F F"
V        0.00000000       0.00000000       0.00000000       0.00000000       0.00000000       0.01901128
V        0.00000000       0.00000000       6.00000000       0.00000000       0.00000000      -0.01901128
