2
Properties=species:S:1:pos:R:3:forces:R:3 energy=15564.762140857702 pbc="F F F"
W        0.00000000       0.00000000       0.00000000       0.00000000       0.00000000 -273121.68750000
W        0.00000000       0.00000000       0.18000000       0.00000000       0.00000000  273121.68750000
2
Properties=species:S:1:pos:R:3:forces:R:3 energy=6024.8114572639515 pbc="F F F"
W        0.00000000       0.00000000       0.00000000       0.00000000       0.00000000  -90203.93750000
W        0.00000000       0.00000000       0.23878788       0.00000000       0.00000000   90203.93750000
2
Properties=species:S:1:pos:R:3:forces:R:3 energy=2629.8585764077443 pbc="F F F"
W        0.00000000       0.00000000       0.00000000       0.00000000       0.00000000  -35040.90625000
W        0.00000000       0.00000000       0.29757576       0.00000000       0.00000000   35040.90625000
2
Properties=species:S:1:pos:R:3:forces:R:3 energy=1248.6808420327445 pbc="F F F"
W        0.00000000       0.00000000       0.00000000       0.00000000       0.00000000  -15049.70312500
W        0.00000000       0.00000000       0.35636364       0.00000000       0.00000000   15049.70312500
2
Properties=species:S:1:pos:R:3:forces:R:3 energy=636.003290766381 pbc="F F F"
W        0.00000000       0.00000000       0.00000000       0.00000000       0.00000000   -6936.20117188
W        0.00000000       0.00000000       0.41515152       0.00000000       0.00000000    6936.20117188
2
Properties=species:S:1:pos:R:3:forces:R:3 energy=346.6251169414239 pbc="F F F"
W        0.00000000       0.00000000       0.00000000       0.00000000       0.00000000   -3370.79223633
W        0.00000000       0.00000000       0.47393939       0.00000000       0.00000000    3370.79223633
2
Properties=species:S:1:pos:R:3:forces:R:3 energy=203.49366248632177 pbc="F F F"
W        0.00000000       0.00000000       0.00000000       0.00000000       0.00000000   -1698.99035645
W        0.00000000       0.00000000       0.53272727       0.00000000       0.00000000    1698.99035645
2
Properties=species:S:1:pos:R:3:forces:R:3 energy=130.7790171195865 pbc="F F F"
W        0.00000000       0.00000000       0.00000000       0.00000000       0.00000000    -866.46136475
W        0.00000000       0.00000000       0.59151515       0.00000000       0.00000000     866.46136475
2
Properties=species:S:1:pos:R:3:forces:R:3 energy=91.71363324013191 pbc="F F F"
W        0.00000000       0.00000000       0.00000000       0.00000000       0.00000000    -482.36050415
W        0.00000000       0.00000000       0.65030303       0.00000000       0.00000000     482.36050415
2
Properties=species:S:1:pos:R:3:forces:R:3 energy=70.47201035967673 pbc="F F F"
W        0.00000000       0.00000000       0.00000000       0.00000000       0.00000000    -264.79501343
W        0.00000000       0.00000000       0.70909091       0.00000000       0.00000000     264.79501343
2
Properties=species:S:1:pos:R:3:forces:R:3 energy=58.40110665446047 pbc="F F F"
W        0.00000000       0.00000000       0.00000000       0.00000000       0.00000000    -159.65928650
W        0.00000000       0.00000000       0.76787879       0.00000000       0.00000000     159.65928650
2
Properties=species:S:1:pos:R:3:forces:R:3 energy=50.51907246040861 pbc="F F F"
W        0.00000000       0.00000000       0.00000000       0.00000000       0.00000000    -115.15308380
W        0.00000000       0.00000000       0.82666667       0.00000000       0.00000000     115.15308380
2
Properties=species:S:1:pos:R:3:forces:R:3 energy=44.43929966641314 pbc="F F F"
W        0.00000000       0.00000000       0.00000000       0.00000000       0.00000000     -92.57987213
W        0.00000000       0.00000000       0.88545455       0.00000000       0.00000000      92.57987213
2
Properties=species:S:1:pos:R:3:forces:R:3 energy=39.726168930897316 pbc="F F F"
W        0.00000000       0.00000000       0.00000000       0.00000000       0.00000000     -66.26822662
W        0.00000000       0.00000000       0.94424242       0.00000000       0.00000000      66.26822662
2
Properties=species:S:1:pos:R:3:forces:R:3 energy=36.74433863174877 pbc="F F F"
W        0.00000000       0.00000000       0.00000000       0.00000000       0.00000000     -81.43201447
W        0.00000000       0.00000000       1.00303030       0.00000000       0.00000000      81.43201447
2
Properties=species:S:1:pos:R:3:forces:R:3 energy=30.744022411021312 pbc="F F F"
W        0.00000000       0.00000000       0.00000000       0.00000000       0.00000000     -60.87805557
W        0.00000000       0.00000000       1.06181818       0.00000000       0.00000000      60.87805557
2
Properties=species:S:1:pos:R:3:forces:R:3 energy=28.180538751320903 pbc="F F F"
W        0.00000000       0.00000000       0.00000000       0.00000000       0.00000000     -39.44533539
W        0.00000000       0.00000000       1.12060606       0.00000000       0.00000000      39.44533539
2
Properties=species:S:1:pos:R:3:forces:R:3 energy=24.77711232421834 pbc="F F F"
W        0.00000000       0.00000000       0.00000000       0.00000000       0.00000000     -77.86633301
W        0.00000000       0.00000000       1.17939394       0.00000000       0.00000000      77.86633301
2
Properties=species:S:1:pos:R:3:forces:R:3 energy=19.85236384949018 pbc="F F F"
W        0.00000000       0.00000000       0.00000000       0.00000000       0.00000000     -88.05240631
W        0.00000000       0.00000000       1.23818182       0.00000000       0.00000000      88.05240631
2
Properties=species:S:1:pos:R:3:forces:R:3 energy=14.27233265394463 pbc="F F F"
W        0.00000000       0.00000000       0.00000000       0.00000000       0.00000000    -103.92534637
W        0.00000000       0.00000000       1.29696970       0.00000000       0.00000000     103.92534637
2
Properties=species:S:1:pos:R:3:forces:R:3 energy=7.878222477842036 pbc="F F F"
W        0.00000000       0.00000000       0.00000000       0.00000000       0.00000000    -107.95875549
W        0.00000000       0.00000000       1.35575758       0.00000000       0.00000000     107.95875549
2
Properties=species:S:1:pos:R:3:forces:R:3 energy=2.081263471819117 pbc="F F F"
W        0.00000000       0.00000000       0.00000000       0.00000000       0.00000000     -86.75936890
W        0.00000000       0.00000000       1.41454545       0.00000000       0.00000000      86.75936890
2
Properties=species:S:1:pos:R:3:forces:R:3 energy=-2.2281767801618266 pbc="F F F"
W        0.00000000       0.00000000       0.00000000       0.00000000       0.00000000     -60.73726654
W        0.00000000       0.00000000       1.47333333       0.00000000       0.00000000      60.73726654
2
Properties=species:S:1:pos:R:3:forces:R:3 energy=-5.271731156363737 pbc="F F F"
W        0.00000000       0.00000000       0.00000000       0.00000000       0.00000000     -44.66054535
W        0.00000000       0.00000000       1.53212121       0.00000000       0.00000000      44.66054535
2
Properties=species:S:1:pos:R:3:forces:R:3 energy=-7.60397642602778 pbc="F F F"
W        0.00000000       0.00000000       0.00000000       0.00000000       0.00000000     -34.96249008
W        0.00000000       0.00000000       1.59090909       0.00000000       0.00000000      34.96249008
2
Properties=species:S:1:pos:R:3:forces:R:3 energy=-9.384888493337845 pbc="F F F"
W        0.00000000       0.00000000       0.00000000       0.00000000       0.00000000     -25.70805168
W        0.00000000       0.00000000       1.64969697       0.00000000       0.00000000      25.70805168
2
Properties=species:S:1:pos:R:3:forces:R:3 energy=-10.65917929823144 pbc="F F F"
W        0.00000000       0.00000000       0.00000000       0.00000000       0.00000000     -18.03687096
W        0.00000000       0.00000000       1.70848485       0.00000000       0.00000000      18.03687096
2
Properties=species:S:1:pos:R:3:forces:R:3 energy=-11.544014301661154 pbc="F F F"
W        0.00000000       0.00000000       0.00000000       0.00000000       0.00000000     -12.23139191
W        0.00000000       0.00000000       1.76727273       0.00000000       0.00000000      12.23139191
2
Properties=species:S:1:pos:R:3:forces:R:3 energy=-12.095956744791005 pbc="F F F"
W        0.00000000       0.00000000       0.00000000       0.00000000       0.00000000      -6.43157721
W        0.00000000       0.00000000       1.82606061       0.00000000       0.00000000       6.43157721
2
Properties=species:S:1:pos:R:3:forces:R:3 energy=-12.29320457136768 pbc="F F F"
W        0.00000000       0.00000000       0.00000000       0.00000000       0.00000000      -0.35809210
W        0.00000000       0.00000000       1.88484848       0.00000000       0.00000000       0.35809210
2
Properties=species:S:1:pos:R:3:forces:R:3 energy=-12.168157912616762 pbc="F F F"
W        0.00000000       0.00000000       0.00000000       0.00000000       0.00000000       4.20952225
W        0.00000000       0.00000000       1.94363636       0.00000000       0.00000000      -4.20952225
2
Properties=species:S:1:pos:R:3:forces:R:3 energy=-11.85270715734113 pbc="F F F"
W        0.00000000       0.00000000       0.00000000       0.00000000       0.00000000       6.06086016
W        0.00000000       0.00000000       2.00242424       0.00000000       0.00000000      -6.06086016
2
Properties=species:S:1:pos:R:3:forces:R:3 energy=-11.501483368864937 pbc="F F F"
W        0.00000000       0.00000000       0.00000000       0.00000000       0.00000000       5.59337234
W        0.00000000       0.00000000       2.06121212       0.00000000       0.00000000      -5.59337234
2
Properties=species:S:1:pos:R:3:forces:R:3 energy=-11.217195255850703 pbc="F F F"
W        0.00000000       0.00000000       0.00000000       0.00000000       0.00000000       3.98945427
W        0.00000000       0.00000000       2.12000000       0.00000000       0.00000000      -3.98945427
2
Properties=species:S:1:pos:R:3:forces:R:3 energy=-11.033669357709842 pbc="F F F"
W        0.00000000       0.00000000       0.00000000       0.00000000       0.00000000       2.30442548
W        0.00000000       0.00000000       2.17878788       0.00000000       0.00000000      -2.30442548
2
Properties=species:S:1:pos:R:3:forces:R:3 energy=-10.936207721426081 pbc="F F F"
W        0.00000000       0.00000000       0.00000000       0.00000000       0.00000000       1.11694801
W        0.00000000       0.00000000       2.23757576       0.00000000       0.00000000      -1.11694801
2
Properties=species:S:1:pos:R:3:forces:R:3 energy=-10.889625549327121 pbc="F F F"
W        0.00000000       0.00000000       0.00000000       0.00000000       0.00000000       0.56985158
W        0.00000000       0.00000000       2.29636364       0.00000000       0.00000000      -0.56985158
2
Properties=species:S:1:pos:R:3:forces:R:3 energy=-10.858907930337969 pbc="F F F"
W        0.00000000       0.00000000       0.00000000       0.00000000       0.00000000       0.54553372
W        0.00000000       0.00000000       2.35515152       0.00000000       0.00000000      -0.54553372
2
Properties=species:S:1:pos:R:3:forces:R:3 energy=-10.819391631122574 pbc="F F F"
W        0.00000000       0.00000000       0.00000000       0.00000000       0.00000000       0.83288223
W        0.00000000       0.00000000       2.41393939       0.00000000       0.00000000      -0.83288223
2
Properties=species:S:1:pos:R:3:forces:R:3 energy=-10.758805119168532 pbc="F F F"
W        0.00000000       0.00000000       0.00000000       0.00000000       0.00000000       1.23334837
W        0.00000000       0.00000000       2.47272727       0.00000000       0.00000000      -1.23334837
2
Properties=species:S:1:pos:R:3:forces:R:3 energy=-10.674946092914377 pbc="F F F"
W        0.00000000       0.00000000       0.00000000       0.00000000       0.00000000       1.60717428
W        0.00000000       0.00000000       2.53151515       0.00000000       0.00000000      -1.60717428
2
Properties=species:S:1:pos:R:3:forces:R:3 energy=-10.57180261206483 pbc="F F F"
W        0.00000000       0.00000000       0.00000000       0.00000000       0.00000000       1.88291192
W        0.00000000       0.00000000       2.59030303       0.00000000       0.00000000      -1.88291192
2
Properties=species:S:1:pos:R:3:forces:R:3 energy=-10.45575158006381 pbc="F F F"
W        0.00000000       0.00000000       0.00000000       0.00000000       0.00000000       2.04817820
W        0.00000000       0.00000000       2.64909091       0.00000000       0.00000000      -2.04817820
2
Properties=species:S:1:pos:R:3:forces:R:3 energy=-10.332647857328352 pbc="F F F"
W        0.00000000       0.00000000       0.00000000       0.00000000       0.00000000       2.12901616
W        0.00000000       0.00000000       2.70787879       0.00000000       0.00000000      -2.12901616
2
Properties=species:S:1:pos:R:3:forces:R:3 energy=-10.206316060097928 pbc="F F F"
W        0.00000000       0.00000000       0.00000000       0.00000000       0.00000000       2.16427779
W        0.00000000       0.00000000       2.76666667       0.00000000       0.00000000      -2.16427779
2
Properties=species:S:1:pos:R:3:forces:R:3 energy=-10.078491382000013 pbc="F F F"
W        0.00000000       0.00000000       0.00000000       0.00000000       0.00000000       2.18295145
W        0.00000000       0.00000000       2.82545455       0.00000000       0.00000000      -2.18295145
2
Properties=species:S:1:pos:R:3:forces:R:3 energy=-9.949843953014742 pbc="F F F"
W        0.00000000       0.00000000       0.00000000       0.00000000       0.00000000       2.19113135
W        0.00000000       0.00000000       2.88424242       0.00000000       0.00000000      -2.19113135
2
Properties=species:S:1:pos:R:3:forces:R:3 energy=-9.821388616391452 pbc="F F F"
W        0.00000000       0.00000000       0.00000000       0.00000000       0.00000000       2.17226028
W        0.00000000       0.00000000       2.94303030       0.00000000       0.00000000      -2.17226028
2
Properties=species:S:1:pos:R:3:forces:R:3 energy=-9.695530259961057 pbc="F F F"
W        0.00000000       0.00000000       0.00000000       0.00000000       0.00000000       2.09782362
W        0.00000000       0.00000000       3.00181818       0.00000000       0.00000000      -2.09782362
2
Properties=species:S:1:pos:R:3:forces:R:3 energy=-9.576309796987921 pbc="F F F"
W        0.00000000       0.00000000       0.00000000       0.00000000       0.00000000       1.94380689
W        0.00000000       0.00000000       3.06060606       0.00000000       0.00000000      -1.94380689
2
Properties=species:S:1:pos:R:3:forces:R:3 energy=-9.468630407571457 pbc="F F F"
W        0.00000000       0.00000000       0.00000000       0.00000000       0.00000000       1.70683002
W        0.00000000       0.00000000       3.11939394       0.00000000       0.00000000      -1.70683002
2
Properties=species:S:1:pos:R:3:forces:R:3 energy=-9.376838888719309 pbc="F F F"
W        0.00000000       0.00000000       0.00000000       0.00000000       0.00000000       1.40862370
W        0.00000000       0.00000000       3.17818182       0.00000000       0.00000000      -1.40862370
2
Properties=species:S:1:pos:R:3:forces:R:3 energy=-9.303470754336127 pbc="F F F"
W        0.00000000       0.00000000       0.00000000       0.00000000       0.00000000       1.08694553
W        0.00000000       0.00000000       3.23696970       0.00000000       0.00000000      -1.08694553
2
Properties=species:S:1:pos:R:3:forces:R:3 energy=-9.248724253722173 pbc="F F F"
W        0.00000000       0.00000000       0.00000000       0.00000000       0.00000000       0.78102708
W        0.00000000       0.00000000       3.29575758       0.00000000       0.00000000      -0.78102708
2
Properties=species:S:1:pos:R:3:forces:R:3 energy=-9.210766445068698 pbc="F F F"
W        0.00000000       0.00000000       0.00000000       0.00000000       0.00000000       0.51916432
W        0.00000000       0.00000000       3.35454545       0.00000000       0.00000000      -0.51916432
2
Properties=species:S:1:pos:R:3:forces:R:3 energy=-9.18656335932321 pbc="F F F"
W        0.00000000       0.00000000       0.00000000       0.00000000       0.00000000       0.31397530
W        0.00000000       0.00000000       3.41333333       0.00000000       0.00000000      -0.31397530
2
Properties=species:S:1:pos:R:3:forces:R:3 energy=-9.172731258321091 pbc="F F F"
W        0.00000000       0.00000000       0.00000000       0.00000000       0.00000000       0.16572005
W        0.00000000       0.00000000       3.47212121       0.00000000       0.00000000      -0.16572005
2
Properties=species:S:1:pos:R:3:forces:R:3 energy=-9.166076638564807 pbc="F F F"
W        0.00000000       0.00000000       0.00000000       0.00000000       0.00000000       0.06858534
W        0.00000000       0.00000000       3.53090909       0.00000000       0.00000000      -0.06858534
2
Properties=species:S:1:pos:R:3:forces:R:3 energy=-9.163824000674715 pbc="F F F"
W        0.00000000       0.00000000       0.00000000       0.00000000       0.00000000       0.01439055
W        0.00000000       0.00000000       3.58969697       0.00000000       0.00000000      -0.01439055
2
Properties=species:S:1:pos:R:3:forces:R:3 energy=-9.163741230555265 pbc="F F F"
W        0.00000000       0.00000000       0.00000000       0.00000000       0.00000000      -0.00708707
W        0.00000000       0.00000000       3.64848485       0.00000000       0.00000000       0.00708707
2
Properties=species:S:1:pos:R:3:forces:R:3 energy=-9.164265636460225 pbc="F F F"
W        0.00000000       0.00000000       0.00000000       0.00000000       0.00000000      -0.00860776
W        0.00000000       0.00000000       3.70727273       0.00000000       0.00000000       0.00860776
2
Properties=species:S:1:pos:R:3:forces:R:3 energy=-9.164639500626317 pbc="F F F"
W        0.00000000       0.00000000       0.00000000       0.00000000       0.00000000      -0.00428478
W        0.00000000       0.00000000       3.76606061       0.00000000       0.00000000       0.00428478
2
Properties=species:S:1:pos:R:3:forces:R:3 energy=-9.16490439524119 pbc="F F F"
W        0.00000000       0.00000000       0.00000000       0.00000000       0.00000000      -0.00667319
W        0.00000000       0.00000000       3.82484848       0.00000000       0.00000000       0.00667319
2
Properties=species:S:1:pos:R:3:forces:R:3 energy=-9.165716131612168 pbc="F F F"
W        0.00000000       0.00000000       0.00000000       0.00000000       0.00000000      -0.02376341
W        0.00000000       0.00000000       3.88363636       0.00000000       0.00000000       0.02376341
2
Properties=species:S:1:pos:R:3:forces:R:3 energy=-9.168028276509553 pbc="F F F"
W        0.00000000       0.00000000       0.00000000       0.00000000       0.00000000      -0.05752604
W        0.00000000       0.00000000       3.94242424       0.00000000       0.00000000       0.05752604
2
Properties=species:S:1:pos:R:3:forces:R:3 energy=-9.172742096671707 pbc="F F F"
W        0.00000000       0.00000000       0.00000000       0.00000000       0.00000000      -0.10455661
W        0.00000000       0.00000000       4.00121212       0.00000000       0.00000000       0.10455661
2
Properties=species:S:1:pos:R:3:forces:R:3 energy=-9.18045202279724 pbc="F F F"
W        0.00000000       0.00000000       0.00000000       0.00000000       0.00000000      -0.15819134
W        0.00000000       0.00000000       4.06000000       0.00000000       0.00000000       0.15819134
2
Properties=species:S:1:pos:R:3:forces:R:3 energy=-9.191324532906822 pbc="F F F"
W        0.00000000       0.00000000       0.00000000       0.00000000       0.00000000      -0.21099071
W        0.00000000       0.00000000       4.11878788       0.00000000       0.00000000       0.21099071
2
Properties=species:S:1:pos:R:3:forces:R:3 energy=-9.205118204846407 pbc="F F F"
W        0.00000000       0.00000000       0.00000000       0.00000000       0.00000000      -0.25668216
W        0.00000000       0.00000000       4.17757576       0.00000000       0.00000000       0.25668216
2
Properties=species:S:1:pos:R:3:forces:R:3 energy=-9.221282958604755 pbc="F F F"
W        0.00000000       0.00000000       0.00000000       0.00000000       0.00000000      -0.29112166
W        0.00000000       0.00000000       4.23636364       0.00000000       0.00000000       0.29112166
2
Properties=species:S:1:pos:R:3:forces:R:3 energy=-9.239088777003577 pbc="F F F"
W        0.00000000       0.00000000       0.00000000       0.00000000       0.00000000      -0.31239790
W        0.00000000       0.00000000       4.29515152       0.00000000       0.00000000       0.31239790
2
Properties=species:S:1:pos:R:3:forces:R:3 energy=-9.257751711084536 pbc="F F F"
W        0.00000000       0.00000000       0.00000000       0.00000000       0.00000000      -0.32039329
W        0.00000000       0.00000000       4.35393939       0.00000000       0.00000000       0.32039329
2
Properties=species:S:1:pos:R:3:forces:R:3 energy=-9.27651864624964 pbc="F F F"
W        0.00000000       0.00000000       0.00000000       0.00000000       0.00000000      -0.31618407
W        0.00000000       0.00000000       4.41272727       0.00000000       0.00000000       0.31618407
2
Properties=species:S:1:pos:R:3:forces:R:3 energy=-9.29472171238242 pbc="F F F"
W        0.00000000       0.00000000       0.00000000       0.00000000       0.00000000      -0.30150196
W        0.00000000       0.00000000       4.47151515       0.00000000       0.00000000       0.30150196
2
Properties=species:S:1:pos:R:3:forces:R:3 energy=-9.311803145904435 pbc="F F F"
W        0.00000000       0.00000000       0.00000000       0.00000000       0.00000000      -0.27836132
W        0.00000000       0.00000000       4.53030303       0.00000000       0.00000000       0.27836132
2
Properties=species:S:1:pos:R:3:forces:R:3 energy=-9.327325691493716 pbc="F F F"
W        0.00000000       0.00000000       0.00000000       0.00000000       0.00000000      -0.24883427
W        0.00000000       0.00000000       4.58909091       0.00000000       0.00000000       0.24883427
2
Properties=species:S:1:pos:R:3:forces:R:3 energy=-9.340973558926922 pbc="F F F"
W        0.00000000       0.00000000       0.00000000       0.00000000       0.00000000      -0.21491978
W        0.00000000       0.00000000       4.64787879       0.00000000       0.00000000       0.21491978
2
Properties=species:S:1:pos:R:3:forces:R:3 energy=-9.352544787349155 pbc="F F F"
W        0.00000000       0.00000000       0.00000000       0.00000000       0.00000000      -0.17845987
W        0.00000000       0.00000000       4.70666667       0.00000000       0.00000000       0.17845987
2
Properties=species:S:1:pos:R:3:forces:R:3 energy=-9.36193877148011 pbc="F F F"
W        0.00000000       0.00000000       0.00000000       0.00000000       0.00000000      -0.14110138
W        0.00000000       0.00000000       4.76545455       0.00000000       0.00000000       0.14110138
2
Properties=species:S:1:pos:R:3:forces:R:3 energy=-9.36914481118665 pbc="F F F"
W        0.00000000       0.00000000       0.00000000       0.00000000       0.00000000      -0.10423061
W        0.00000000       0.00000000       4.82424242       0.00000000       0.00000000       0.10423061
2
Properties=species:S:1:pos:R:3:forces:R:3 energy=-9.374225854669904 pbc="F F F"
W        0.00000000       0.00000000       0.00000000       0.00000000       0.00000000      -0.06898433
W        0.00000000       0.00000000       4.88303030       0.00000000       0.00000000       0.06898433
2
Properties=species:S:1:pos:R:3:forces:R:3 energy=-9.377304079308919 pbc="F F F"
W        0.00000000       0.00000000       0.00000000       0.00000000       0.00000000      -0.03623068
W        0.00000000       0.00000000       4.94181818       0.00000000       0.00000000       0.03623068
2
Properties=species:S:1:pos:R:3:forces:R:3 energy=-9.378547508542027 pbc="F F F"
W        0.00000000       0.00000000       0.00000000       0.00000000       0.00000000      -0.00663834
W        0.00000000       0.00000000       5.00060606       0.00000000       0.00000000       0.00663834
2
Properties=species:S:1:pos:R:3:forces:R:3 energy=-9.378156666762047 pbc="F F F"
W        0.00000000       0.00000000       0.00000000       0.00000000       0.00000000       0.01929339
W        0.00000000       0.00000000       5.05939394       0.00000000       0.00000000      -0.01929339
2
Properties=species:S:1:pos:R:3:forces:R:3 energy=-9.376358692543635 pbc="F F F"
W        0.00000000       0.00000000       0.00000000       0.00000000       0.00000000       0.04118046
W        0.00000000       0.00000000       5.11818182       0.00000000       0.00000000      -0.04118046
2
Properties=species:S:1:pos:R:3:forces:R:3 energy=-9.373400647083958 pbc="F F F"
W        0.00000000       0.00000000       0.00000000       0.00000000       0.00000000       0.05872944
W        0.00000000       0.00000000       5.17696970       0.00000000       0.00000000      -0.05872944
2
Properties=species:S:1:pos:R:3:forces:R:3 energy=-9.36954280680427 pbc="F F F"
W        0.00000000       0.00000000       0.00000000       0.00000000       0.00000000       0.07175359
W        0.00000000       0.00000000       5.23575758       0.00000000       0.00000000      -0.07175359
2
Properties=species:S:1:pos:R:3:forces:R:3 energy=-9.365053815782757 pbc="F F F"
W        0.00000000       0.00000000       0.00000000       0.00000000       0.00000000       0.08019520
W        0.00000000       0.00000000       5.29454545       0.00000000       0.00000000      -0.08019520
2
Properties=species:S:1:pos:R:3:forces:R:3 energy=-9.360201144259651 pbc="F F F"
W        0.00000000       0.00000000       0.00000000       0.00000000       0.00000000       0.08417603
W        0.00000000       0.00000000       5.35333333       0.00000000       0.00000000      -0.08417603
2
Properties=species:S:1:pos:R:3:forces:R:3 energy=-9.355237648497782 pbc="F F F"
W        0.00000000       0.00000000       0.00000000       0.00000000       0.00000000       0.08401497
W        0.00000000       0.00000000       5.41212121       0.00000000       0.00000000      -0.08401497
2
Properties=species:S:1:pos:R:3:forces:R:3 energy=-9.350393024143683 pbc="F F F"
W        0.00000000       0.00000000       0.00000000       0.00000000       0.00000000       0.08024377
W        0.00000000       0.00000000       5.47090909       0.00000000       0.00000000      -0.08024377
2
Properties=species:S:1:pos:R:3:forces:R:3 energy=-9.34586039459853 pbc="F F F"
W        0.00000000       0.00000000       0.00000000       0.00000000       0.00000000       0.07355976
W        0.00000000       0.00000000       5.52969697       0.00000000       0.00000000      -0.07355976
2
Properties=species:S:1:pos:R:3:forces:R:3 energy=-9.341785817432855 pbc="F F F"
W        0.00000000       0.00000000       0.00000000       0.00000000       0.00000000       0.06479155
W        0.00000000       0.00000000       5.58848485       0.00000000       0.00000000      -0.06479155
2
Properties=species:S:1:pos:R:3:forces:R:3 energy=-9.33826547404874 pbc="F F F"
W        0.00000000       0.00000000       0.00000000       0.00000000       0.00000000       0.05482346
W        0.00000000       0.00000000       5.64727273       0.00000000       0.00000000      -0.05482346
2
Properties=species:S:1:pos:R:3:forces:R:3 energy=-9.335346544158583 pbc="F F F"
W        0.00000000       0.00000000       0.00000000       0.00000000       0.00000000       0.04453252
W        0.00000000       0.00000000       5.70606061       0.00000000       0.00000000      -0.04453252
2
Properties=species:S:1:pos:R:3:forces:R:3 energy=-9.333018679737052 pbc="F F F"
W        0.00000000       0.00000000       0.00000000       0.00000000       0.00000000       0.03472400
W        0.00000000       0.00000000       5.76484848       0.00000000       0.00000000      -0.03472400
2
Properties=species:S:1:pos:R:3:forces:R:3 energy=-9.331238860741927 pbc="F F F"
W        0.00000000       0.00000000       0.00000000       0.00000000       0.00000000       0.02612087
W        0.00000000       0.00000000       5.82363636       0.00000000       0.00000000      -0.02612087
2
Properties=species:S:1:pos:R:3:forces:R:3 energy=-9.329915108206903 pbc="F F F"
W        0.00000000       0.00000000       0.00000000       0.00000000       0.00000000       0.01929219
W        0.00000000       0.00000000       5.88242424       0.00000000       0.00000000      -0.01929219
2
Properties=species:S:1:pos:R:3:forces:R:3 energy=-9.328926589013882 pbc="F F F"
W        0.00000000       0.00000000       0.00000000       0.00000000       0.00000000       0.01471315
W        0.00000000       0.00000000       5.94121212       0.00000000       0.00000000      -0.01471315
2
Properties=species:S:1:pos:R:3:forces:R:3 energy=-9.328133190649993 pbc="F F F"
W        0.00000000       0.00000000       0.00000000       0.00000000       0.00000000       0.01275367
W        0.00000000       0.00000000       6.00000000       0.00000000       0.00000000      -0.01275367
