2
Properties=species:S:1:pos:R:3:forces:R:3 energy=4402.904937828955 pbc="F F F"
Zn       0.00000000       0.00000000       0.00000000       0.00000000       0.00000000  -69304.03125000
Zn       0.00000000       0.00000000       0.18000000       0.00000000       0.00000000   69304.03125000
2
Properties=species:S:1:pos:R:3:forces:R:3 energy=1891.7884827508294 pbc="F F F"
Zn       0.00000000       0.00000000       0.00000000       0.00000000       0.00000000  -24986.16406250
Zn       0.00000000       0.00000000       0.23878788       0.00000000       0.00000000   24986.16406250
2
Properties=species:S:1:pos:R:3:forces:R:3 energy=915.6654969141536 pbc="F F F"
Zn       0.00000000       0.00000000       0.00000000       0.00000000       0.00000000  -10603.75195312
Zn       0.00000000       0.00000000       0.29757576       0.00000000       0.00000000   10603.75195312
2
Properties=species:S:1:pos:R:3:forces:R:3 energy=480.84854135091507 pbc="F F F"
Zn       0.00000000       0.00000000       0.00000000       0.00000000       0.00000000   -4989.06689453
Zn       0.00000000       0.00000000       0.35636364       0.00000000       0.00000000    4989.06689453
2
Properties=species:S:1:pos:R:3:forces:R:3 energy=269.602264501782 pbc="F F F"
Zn       0.00000000       0.00000000       0.00000000       0.00000000       0.00000000   -2511.60986328
Zn       0.00000000       0.00000000       0.41515152       0.00000000       0.00000000    2511.60986328
2
Properties=species:S:1:pos:R:3:forces:R:3 energy=160.93637096926923 pbc="F F F"
Zn       0.00000000       0.00000000       0.00000000       0.00000000       0.00000000   -1322.50793457
Zn       0.00000000       0.00000000       0.47393939       0.00000000       0.00000000    1322.50793457
2
Properties=species:S:1:pos:R:3:forces:R:3 energy=102.93675247067402 pbc="F F F"
Zn       0.00000000       0.00000000       0.00000000       0.00000000       0.00000000    -715.48651123
Zn       0.00000000       0.00000000       0.53272727       0.00000000       0.00000000     715.48651123
2
Properties=species:S:1:pos:R:3:forces:R:3 energy=71.37331410583184 pbc="F F F"
Zn       0.00000000       0.00000000       0.00000000       0.00000000       0.00000000    -391.00604248
Zn       0.00000000       0.00000000       0.59151515       0.00000000       0.00000000     391.00604248
2
Properties=species:S:1:pos:R:3:forces:R:3 energy=54.125355063903605 pbc="F F F"
Zn       0.00000000       0.00000000       0.00000000       0.00000000       0.00000000    -213.64248657
Zn       0.00000000       0.00000000       0.65030303       0.00000000       0.00000000     213.64248657
2
Properties=species:S:1:pos:R:3:forces:R:3 energy=44.61132475308046 pbc="F F F"
Zn       0.00000000       0.00000000       0.00000000       0.00000000       0.00000000    -121.18088531
Zn       0.00000000       0.00000000       0.70909091       0.00000000       0.00000000     121.18088531
2
Properties=species:S:1:pos:R:3:forces:R:3 energy=38.813553520970586 pbc="F F F"
Zn       0.00000000       0.00000000       0.00000000       0.00000000       0.00000000     -82.87336731
Zn       0.00000000       0.00000000       0.76787879       0.00000000       0.00000000      82.87336731
2
Properties=species:S:1:pos:R:3:forces:R:3 energy=34.342560811599725 pbc="F F F"
Zn       0.00000000       0.00000000       0.00000000       0.00000000       0.00000000     -71.89218140
Zn       0.00000000       0.00000000       0.82666667       0.00000000       0.00000000      71.89218140
2
Properties=species:S:1:pos:R:3:forces:R:3 energy=30.1350112347771 pbc="F F F"
Zn       0.00000000       0.00000000       0.00000000       0.00000000       0.00000000     -72.81587219
Zn       0.00000000       0.00000000       0.88545455       0.00000000       0.00000000      72.81587219
2
Properties=species:S:1:pos:R:3:forces:R:3 energy=25.646745902473167 pbc="F F F"
Zn       0.00000000       0.00000000       0.00000000       0.00000000       0.00000000     -80.38230133
Zn       0.00000000       0.00000000       0.94424242       0.00000000       0.00000000      80.38230133
2
Properties=species:S:1:pos:R:3:forces:R:3 energy=20.684100330430947 pbc="F F F"
Zn       0.00000000       0.00000000       0.00000000       0.00000000       0.00000000     -88.26161957
Zn       0.00000000       0.00000000       1.00303030       0.00000000       0.00000000      88.26161957
2
Properties=species:S:1:pos:R:3:forces:R:3 energy=15.321030114727728 pbc="F F F"
Zn       0.00000000       0.00000000       0.00000000       0.00000000       0.00000000     -92.70200348
Zn       0.00000000       0.00000000       1.06181818       0.00000000       0.00000000      92.70200348
2
Properties=species:S:1:pos:R:3:forces:R:3 energy=10.253933125434601 pbc="F F F"
Zn       0.00000000       0.00000000       0.00000000       0.00000000       0.00000000     -73.91404724
Zn       0.00000000       0.00000000       1.12060606       0.00000000       0.00000000      73.91404724
2
Properties=species:S:1:pos:R:3:forces:R:3 energy=7.003620544854493 pbc="F F F"
Zn       0.00000000       0.00000000       0.00000000       0.00000000       0.00000000     -37.79799271
Zn       0.00000000       0.00000000       1.17939394       0.00000000       0.00000000      37.79799271
2
Properties=species:S:1:pos:R:3:forces:R:3 energy=5.451600850072603 pbc="F F F"
Zn       0.00000000       0.00000000       0.00000000       0.00000000       0.00000000     -17.87457657
Zn       0.00000000       0.00000000       1.23818182       0.00000000       0.00000000      17.87457657
2
Properties=species:S:1:pos:R:3:forces:R:3 energy=4.660812387485851 pbc="F F F"
Zn       0.00000000       0.00000000       0.00000000       0.00000000       0.00000000     -10.48664761
Zn       0.00000000       0.00000000       1.29696970       0.00000000       0.00000000      10.48664761
2
Properties=species:S:1:pos:R:3:forces:R:3 energy=4.111110391901847 pbc="F F F"
Zn       0.00000000       0.00000000       0.00000000       0.00000000       0.00000000      -8.62795544
Zn       0.00000000       0.00000000       1.35575758       0.00000000       0.00000000       8.62795544
2
Properties=species:S:1:pos:R:3:forces:R:3 energy=3.6305370805565715 pbc="F F F"
Zn       0.00000000       0.00000000       0.00000000       0.00000000       0.00000000      -7.72858572
Zn       0.00000000       0.00000000       1.41454545       0.00000000       0.00000000       7.72858572
2
Properties=species:S:1:pos:R:3:forces:R:3 energy=3.2014723406056063 pbc="F F F"
Zn       0.00000000       0.00000000       0.00000000       0.00000000       0.00000000      -6.90509892
Zn       0.00000000       0.00000000       1.47333333       0.00000000       0.00000000       6.90509892
2
Properties=species:S:1:pos:R:3:forces:R:3 energy=2.811072082355852 pbc="F F F"
Zn       0.00000000       0.00000000       0.00000000       0.00000000       0.00000000      -6.45629406
Zn       0.00000000       0.00000000       1.53212121       0.00000000       0.00000000       6.45629406
2
Properties=species:S:1:pos:R:3:forces:R:3 energy=2.4335568414476314 pbc="F F F"
Zn       0.00000000       0.00000000       0.00000000       0.00000000       0.00000000      -6.44648647
Zn       0.00000000       0.00000000       1.59090909       0.00000000       0.00000000       6.44648647
2
Properties=species:S:1:pos:R:3:forces:R:3 energy=2.049206705093048 pbc="F F F"
Zn       0.00000000       0.00000000       0.00000000       0.00000000       0.00000000      -6.63325071
Zn       0.00000000       0.00000000       1.64969697       0.00000000       0.00000000       6.63325071
2
Properties=species:S:1:pos:R:3:forces:R:3 energy=1.656521764171992 pbc="F F F"
Zn       0.00000000       0.00000000       0.00000000       0.00000000       0.00000000      -6.67762661
Zn       0.00000000       0.00000000       1.70848485       0.00000000       0.00000000       6.67762661
2
Properties=species:S:1:pos:R:3:forces:R:3 energy=1.2714656139124425 pbc="F F F"
Zn       0.00000000       0.00000000       0.00000000       0.00000000       0.00000000      -6.35238552
Zn       0.00000000       0.00000000       1.76727273       0.00000000       0.00000000       6.35238552
2
Properties=species:S:1:pos:R:3:forces:R:3 energy=0.9174594893258458 pbc="F F F"
Zn       0.00000000       0.00000000       0.00000000       0.00000000       0.00000000      -5.63351393
Zn       0.00000000       0.00000000       1.82606061       0.00000000       0.00000000       5.63351393
2
Properties=species:S:1:pos:R:3:forces:R:3 energy=0.6141310090191564 pbc="F F F"
Zn       0.00000000       0.00000000       0.00000000       0.00000000       0.00000000      -4.66013288
Zn       0.00000000       0.00000000       1.88484848       0.00000000       0.00000000       4.66013288
2
Properties=species:S:1:pos:R:3:forces:R:3 energy=0.3704825255133426 pbc="F F F"
Zn       0.00000000       0.00000000       0.00000000       0.00000000       0.00000000      -3.63772559
Zn       0.00000000       0.00000000       1.94363636       0.00000000       0.00000000       3.63772559
2
Properties=species:S:1:pos:R:3:forces:R:3 energy=0.18378576351342749 pbc="F F F"
Zn       0.00000000       0.00000000       0.00000000       0.00000000       0.00000000      -2.74679804
Zn       0.00000000       0.00000000       2.00242424       0.00000000       0.00000000       2.74679804
2
Properties=species:S:1:pos:R:3:forces:R:3 energy=0.043038065035514675 pbc="F F F"
Zn       0.00000000       0.00000000       0.00000000       0.00000000       0.00000000      -2.08126187
Zn       0.00000000       0.00000000       2.06121212       0.00000000       0.00000000       2.08126187
2
Properties=species:S:1:pos:R:3:forces:R:3 energy=-0.06521824258968725 pbc="F F F"
Zn       0.00000000       0.00000000       0.00000000       0.00000000       0.00000000      -1.63280952
Zn       0.00000000       0.00000000       2.12000000       0.00000000       0.00000000       1.63280952
2
Properties=species:S:1:pos:R:3:forces:R:3 energy=-0.15177219226694408 pbc="F F F"
Zn       0.00000000       0.00000000       0.00000000       0.00000000       0.00000000      -1.32888472
Zn       0.00000000       0.00000000       2.17878788       0.00000000       0.00000000       1.32888472
2
Properties=species:S:1:pos:R:3:forces:R:3 energy=-0.22280257122516733 pbc="F F F"
Zn       0.00000000       0.00000000       0.00000000       0.00000000       0.00000000      -1.09469628
Zn       0.00000000       0.00000000       2.23757576       0.00000000       0.00000000       1.09469628
2
Properties=species:S:1:pos:R:3:forces:R:3 energy=-0.2810627161072543 pbc="F F F"
Zn       0.00000000       0.00000000       0.00000000       0.00000000       0.00000000      -0.89136642
Zn       0.00000000       0.00000000       2.29636364       0.00000000       0.00000000       0.89136642
2
Properties=species:S:1:pos:R:3:forces:R:3 energy=-0.3281145273821993 pbc="F F F"
Zn       0.00000000       0.00000000       0.00000000       0.00000000       0.00000000      -0.71445882
Zn       0.00000000       0.00000000       2.35515152       0.00000000       0.00000000       0.71445882
2
Properties=species:S:1:pos:R:3:forces:R:3 energy=-0.36576439361965174 pbc="F F F"
Zn       0.00000000       0.00000000       0.00000000       0.00000000       0.00000000      -0.57300353
Zn       0.00000000       0.00000000       2.41393939       0.00000000       0.00000000       0.57300353
2
Properties=species:S:1:pos:R:3:forces:R:3 energy=-0.3962785586329169 pbc="F F F"
Zn       0.00000000       0.00000000       0.00000000       0.00000000       0.00000000      -0.47153774
Zn       0.00000000       0.00000000       2.47272727       0.00000000       0.00000000       0.47153774
2
Properties=species:S:1:pos:R:3:forces:R:3 energy=-0.42184012674727606 pbc="F F F"
Zn       0.00000000       0.00000000       0.00000000       0.00000000       0.00000000      -0.40203601
Zn       0.00000000       0.00000000       2.53151515       0.00000000       0.00000000       0.40203601
2
Properties=species:S:1:pos:R:3:forces:R:3 energy=-0.44380011439240497 pbc="F F F"
Zn       0.00000000       0.00000000       0.00000000       0.00000000       0.00000000      -0.34547445
Zn       0.00000000       0.00000000       2.59030303       0.00000000       0.00000000       0.34547445
2
Properties=species:S:1:pos:R:3:forces:R:3 energy=-0.4623941823910632 pbc="F F F"
Zn       0.00000000       0.00000000       0.00000000       0.00000000       0.00000000      -0.28632057
Zn       0.00000000       0.00000000       2.64909091       0.00000000       0.00000000       0.28632057
2
Properties=species:S:1:pos:R:3:forces:R:3 energy=-0.47745013216046744 pbc="F F F"
Zn       0.00000000       0.00000000       0.00000000       0.00000000       0.00000000      -0.22659150
Zn       0.00000000       0.00000000       2.70787879       0.00000000       0.00000000       0.22659150
2
Properties=species:S:1:pos:R:3:forces:R:3 energy=-0.4891744838353523 pbc="F F F"
Zn       0.00000000       0.00000000       0.00000000       0.00000000       0.00000000      -0.17356434
Zn       0.00000000       0.00000000       2.76666667       0.00000000       0.00000000       0.17356434
2
Properties=species:S:1:pos:R:3:forces:R:3 energy=-0.49797676795691787 pbc="F F F"
Zn       0.00000000       0.00000000       0.00000000       0.00000000       0.00000000      -0.12658168
Zn       0.00000000       0.00000000       2.82545455       0.00000000       0.00000000       0.12658168
2
Properties=species:S:1:pos:R:3:forces:R:3 energy=-0.5041104290897922 pbc="F F F"
Zn       0.00000000       0.00000000       0.00000000       0.00000000       0.00000000      -0.08239956
Zn       0.00000000       0.00000000       2.88424242       0.00000000       0.00000000       0.08239956
2
Properties=species:S:1:pos:R:3:forces:R:3 energy=-0.5077012432017709 pbc="F F F"
Zn       0.00000000       0.00000000       0.00000000       0.00000000       0.00000000      -0.04013196
Zn       0.00000000       0.00000000       2.94303030       0.00000000       0.00000000       0.04013196
2
Properties=species:S:1:pos:R:3:forces:R:3 energy=-0.508881655764848 pbc="F F F"
Zn       0.00000000       0.00000000       0.00000000       0.00000000       0.00000000      -0.00055855
Zn       0.00000000       0.00000000       3.00181818       0.00000000       0.00000000       0.00055855
2
Properties=species:S:1:pos:R:3:forces:R:3 energy=-0.5078389678374367 pbc="F F F"
Zn       0.00000000       0.00000000       0.00000000       0.00000000       0.00000000       0.03535047
Zn       0.00000000       0.00000000       3.06060606       0.00000000       0.00000000      -0.03535047
2
Properties=species:S:1:pos:R:3:forces:R:3 energy=-0.5048098307943405 pbc="F F F"
Zn       0.00000000       0.00000000       0.00000000       0.00000000       0.00000000       0.06695013
Zn       0.00000000       0.00000000       3.11939394       0.00000000       0.00000000      -0.06695013
2
Properties=species:S:1:pos:R:3:forces:R:3 energy=-0.500058888958207 pbc="F F F"
Zn       0.00000000       0.00000000       0.00000000       0.00000000       0.00000000       0.09387681
Zn       0.00000000       0.00000000       3.17818182       0.00000000       0.00000000      -0.09387681
2
Properties=species:S:1:pos:R:3:forces:R:3 energy=-0.49386808762571627 pbc="F F F"
Zn       0.00000000       0.00000000       0.00000000       0.00000000       0.00000000       0.11592129
Zn       0.00000000       0.00000000       3.23696970       0.00000000       0.00000000      -0.11592129
2
Properties=species:S:1:pos:R:3:forces:R:3 energy=-0.4865273602839003 pbc="F F F"
Zn       0.00000000       0.00000000       0.00000000       0.00000000       0.00000000       0.13297766
Zn       0.00000000       0.00000000       3.29575758       0.00000000       0.00000000      -0.13297766
2
Properties=species:S:1:pos:R:3:forces:R:3 energy=-0.47833069387167004 pbc="F F F"
Zn       0.00000000       0.00000000       0.00000000       0.00000000       0.00000000       0.14505211
Zn       0.00000000       0.00000000       3.35454545       0.00000000       0.00000000      -0.14505211
2
Properties=species:S:1:pos:R:3:forces:R:3 energy=-0.4695674416328415 pbc="F F F"
Zn       0.00000000       0.00000000       0.00000000       0.00000000       0.00000000       0.15229394
Zn       0.00000000       0.00000000       3.41333333       0.00000000       0.00000000      -0.15229394
2
Properties=species:S:1:pos:R:3:forces:R:3 energy=-0.4605129600192142 pbc="F F F"
Zn       0.00000000       0.00000000       0.00000000       0.00000000       0.00000000       0.15503322
Zn       0.00000000       0.00000000       3.47212121       0.00000000       0.00000000      -0.15503322
2
Properties=species:S:1:pos:R:3:forces:R:3 energy=-0.4514172387506067 pbc="F F F"
Zn       0.00000000       0.00000000       0.00000000       0.00000000       0.00000000       0.15380284
Zn       0.00000000       0.00000000       3.53090909       0.00000000       0.00000000      -0.15380284
2
Properties=species:S:1:pos:R:3:forces:R:3 energy=-0.4424932404792352 pbc="F F F"
Zn       0.00000000       0.00000000       0.00000000       0.00000000       0.00000000       0.14931889
Zn       0.00000000       0.00000000       3.58969697       0.00000000       0.00000000      -0.14931889
2
Properties=species:S:1:pos:R:3:forces:R:3 energy=-0.4339084476015747 pbc="F F F"
Zn       0.00000000       0.00000000       0.00000000       0.00000000       0.00000000       0.14240758
Zn       0.00000000       0.00000000       3.64848485       0.00000000       0.00000000      -0.14240758
2
Properties=species:S:1:pos:R:3:forces:R:3 energy=-0.42578105014493883 pbc="F F F"
Zn       0.00000000       0.00000000       0.00000000       0.00000000       0.00000000       0.13389461
Zn       0.00000000       0.00000000       3.70727273       0.00000000       0.00000000      -0.13389461
2
Properties=species:S:1:pos:R:3:forces:R:3 energy=-0.4181828606434058 pbc="F F F"
Zn       0.00000000       0.00000000       0.00000000       0.00000000       0.00000000       0.12449995
Zn       0.00000000       0.00000000       3.76606061       0.00000000       0.00000000      -0.12449995
2
Properties=species:S:1:pos:R:3:forces:R:3 energy=-0.4111491375248411 pbc="F F F"
Zn       0.00000000       0.00000000       0.00000000       0.00000000       0.00000000       0.11477750
Zn       0.00000000       0.00000000       3.82484848       0.00000000       0.00000000      -0.11477750
2
Properties=species:S:1:pos:R:3:forces:R:3 energy=-0.4046866248183213 pbc="F F F"
Zn       0.00000000       0.00000000       0.00000000       0.00000000       0.00000000       0.10511152
Zn       0.00000000       0.00000000       3.88363636       0.00000000       0.00000000      -0.10511152
2
Properties=species:S:1:pos:R:3:forces:R:3 energy=-0.3987842873258384 pbc="F F F"
Zn       0.00000000       0.00000000       0.00000000       0.00000000       0.00000000       0.09576023
Zn       0.00000000       0.00000000       3.94242424       0.00000000       0.00000000      -0.09576023
2
Properties=species:S:1:pos:R:3:forces:R:3 energy=-0.39341782298426364 pbc="F F F"
Zn       0.00000000       0.00000000       0.00000000       0.00000000       0.00000000       0.08690738
Zn       0.00000000       0.00000000       4.00121212       0.00000000       0.00000000      -0.08690738
2
Properties=species:S:1:pos:R:3:forces:R:3 energy=-0.38855349152582486 pbc="F F F"
Zn       0.00000000       0.00000000       0.00000000       0.00000000       0.00000000       0.07870002
Zn       0.00000000       0.00000000       4.06000000       0.00000000       0.00000000      -0.07870002
2
Properties=species:S:1:pos:R:3:forces:R:3 energy=-0.38414954769739823 pbc="F F F"
Zn       0.00000000       0.00000000       0.00000000       0.00000000       0.00000000       0.07126052
Zn       0.00000000       0.00000000       4.11878788       0.00000000       0.00000000      -0.07126052
2
Properties=species:S:1:pos:R:3:forces:R:3 energy=-0.3801581493170879 pbc="F F F"
Zn       0.00000000       0.00000000       0.00000000       0.00000000       0.00000000       0.06467663
Zn       0.00000000       0.00000000       4.17757576       0.00000000       0.00000000      -0.06467663
2
Properties=species:S:1:pos:R:3:forces:R:3 energy=-0.3765276331700884 pbc="F F F"
Zn       0.00000000       0.00000000       0.00000000       0.00000000       0.00000000       0.05898344
Zn       0.00000000       0.00000000       4.23636364       0.00000000       0.00000000      -0.05898344
2
Properties=species:S:1:pos:R:3:forces:R:3 energy=-0.37320617131484224 pbc="F F F"
Zn       0.00000000       0.00000000       0.00000000       0.00000000       0.00000000       0.05415183
Zn       0.00000000       0.00000000       4.29515152       0.00000000       0.00000000      -0.05415183
2
Properties=species:S:1:pos:R:3:forces:R:3 energy=-0.3701456137067294 pbc="F F F"
Zn       0.00000000       0.00000000       0.00000000       0.00000000       0.00000000       0.05008819
Zn       0.00000000       0.00000000       4.35393939       0.00000000       0.00000000      -0.05008819
2
Properties=species:S:1:pos:R:3:forces:R:3 energy=-0.36730492709244894 pbc="F F F"
Zn       0.00000000       0.00000000       0.00000000       0.00000000       0.00000000       0.04664198
Zn       0.00000000       0.00000000       4.41272727       0.00000000       0.00000000      -0.04664198
2
Properties=species:S:1:pos:R:3:forces:R:3 energy=-0.3646532361388261 pbc="F F F"
Zn       0.00000000       0.00000000       0.00000000       0.00000000       0.00000000       0.04362311
Zn       0.00000000       0.00000000       4.47151515       0.00000000       0.00000000      -0.04362311
2
Properties=species:S:1:pos:R:3:forces:R:3 energy=-0.36217158306175584 pbc="F F F"
Zn       0.00000000       0.00000000       0.00000000       0.00000000       0.00000000       0.04082338
Zn       0.00000000       0.00000000       4.53030303       0.00000000       0.00000000      -0.04082338
2
Properties=species:S:1:pos:R:3:forces:R:3 energy=-0.35985296388814064 pbc="F F F"
Zn       0.00000000       0.00000000       0.00000000       0.00000000       0.00000000       0.03804749
Zn       0.00000000       0.00000000       4.58909091       0.00000000       0.00000000      -0.03804749
2
Properties=species:S:1:pos:R:3:forces:R:3 energy=-0.35770055298783576 pbc="F F F"
Zn       0.00000000       0.00000000       0.00000000       0.00000000       0.00000000       0.03515079
Zn       0.00000000       0.00000000       4.64787879       0.00000000       0.00000000      -0.03515079
2
Properties=species:S:1:pos:R:3:forces:R:3 energy=-0.35572367213255973 pbc="F F F"
Zn       0.00000000       0.00000000       0.00000000       0.00000000       0.00000000       0.03207390
Zn       0.00000000       0.00000000       4.70666667       0.00000000       0.00000000      -0.03207390
2
Properties=species:S:1:pos:R:3:forces:R:3 energy=-0.353932158856898 pbc="F F F"
Zn       0.00000000       0.00000000       0.00000000       0.00000000       0.00000000       0.02886191
Zn       0.00000000       0.00000000       4.76545455       0.00000000       0.00000000      -0.02886191
2
Properties=species:S:1:pos:R:3:forces:R:3 energy=-0.352330228055855 pbc="F F F"
Zn       0.00000000       0.00000000       0.00000000       0.00000000       0.00000000       0.02565107
Zn       0.00000000       0.00000000       4.82424242       0.00000000       0.00000000      -0.02565107
2
Properties=species:S:1:pos:R:3:forces:R:3 energy=-0.35091244104376473 pbc="F F F"
Zn       0.00000000       0.00000000       0.00000000       0.00000000       0.00000000       0.02263148
Zn       0.00000000       0.00000000       4.88303030       0.00000000       0.00000000      -0.02263148
2
Properties=species:S:1:pos:R:3:forces:R:3 energy=-0.3496618609781246 pbc="F F F"
Zn       0.00000000       0.00000000       0.00000000       0.00000000       0.00000000       0.01999227
Zn       0.00000000       0.00000000       4.94181818       0.00000000       0.00000000      -0.01999227
2
Properties=species:S:1:pos:R:3:forces:R:3 energy=-0.3485515235528231 pbc="F F F"
Zn       0.00000000       0.00000000       0.00000000       0.00000000       0.00000000       0.01787608
Zn       0.00000000       0.00000000       5.00060606       0.00000000       0.00000000      -0.01787608
2
Properties=species:S:1:pos:R:3:forces:R:3 energy=-0.3475484485163376 pbc="F F F"
Zn       0.00000000       0.00000000       0.00000000       0.00000000       0.00000000       0.01634943
Zn       0.00000000       0.00000000       5.05939394       0.00000000       0.00000000      -0.01634943
2
Properties=species:S:1:pos:R:3:forces:R:3 energy=-0.3466179467532807 pbc="F F F"
Zn       0.00000000       0.00000000       0.00000000       0.00000000       0.00000000       0.01539683
Zn       0.00000000       0.00000000       5.11818182       0.00000000       0.00000000      -0.01539683
2
Properties=species:S:1:pos:R:3:forces:R:3 energy=-0.34572859210454704 pbc="F F F"
Zn       0.00000000       0.00000000       0.00000000       0.00000000       0.00000000       0.01493169
Zn       0.00000000       0.00000000       5.17696970       0.00000000       0.00000000      -0.01493169
2
Properties=species:S:1:pos:R:3:forces:R:3 energy=-0.34485547644808556 pbc="F F F"
Zn       0.00000000       0.00000000       0.00000000       0.00000000       0.00000000       0.01481658
Zn       0.00000000       0.00000000       5.23575758       0.00000000       0.00000000      -0.01481658
2
Properties=species:S:1:pos:R:3:forces:R:3 energy=-0.3439828814045133 pbc="F F F"
Zn       0.00000000       0.00000000       0.00000000       0.00000000       0.00000000       0.01488670
Zn       0.00000000       0.00000000       5.29454545       0.00000000       0.00000000      -0.01488670
2
Properties=species:S:1:pos:R:3:forces:R:3 energy=-0.34310483566174993 pbc="F F F"
Zn       0.00000000       0.00000000       0.00000000       0.00000000       0.00000000       0.01497384
Zn       0.00000000       0.00000000       5.35333333       0.00000000       0.00000000      -0.01497384
2
Properties=species:S:1:pos:R:3:forces:R:3 energy=-0.34222489714728294 pbc="F F F"
Zn       0.00000000       0.00000000       0.00000000       0.00000000       0.00000000       0.01492842
Zn       0.00000000       0.00000000       5.41212121       0.00000000       0.00000000      -0.01492842
2
Properties=species:S:1:pos:R:3:forces:R:3 energy=-0.3413544000268558 pbc="F F F"
Zn       0.00000000       0.00000000       0.00000000       0.00000000       0.00000000       0.01463955
Zn       0.00000000       0.00000000       5.47090909       0.00000000       0.00000000      -0.01463955
2
Properties=species:S:1:pos:R:3:forces:R:3 energy=-0.340509573382663 pbc="F F F"
Zn       0.00000000       0.00000000       0.00000000       0.00000000       0.00000000       0.01404968
Zn       0.00000000       0.00000000       5.52969697       0.00000000       0.00000000      -0.01404968
2
Properties=species:S:1:pos:R:3:forces:R:3 energy=-0.33970843256034317 pbc="F F F"
Zn       0.00000000       0.00000000       0.00000000       0.00000000       0.00000000       0.01315827
Zn       0.00000000       0.00000000       5.58848485       0.00000000       0.00000000      -0.01315827
2
Properties=species:S:1:pos:R:3:forces:R:3 energy=-0.33896734535828066 pbc="F F F"
Zn       0.00000000       0.00000000       0.00000000       0.00000000       0.00000000       0.01201971
Zn       0.00000000       0.00000000       5.64727273       0.00000000       0.00000000      -0.01201971
2
Properties=species:S:1:pos:R:3:forces:R:3 energy=-0.33829830021738 pbc="F F F"
Zn       0.00000000       0.00000000       0.00000000       0.00000000       0.00000000       0.01072814
Zn       0.00000000       0.00000000       5.70606061       0.00000000       0.00000000      -0.01072814
2
Properties=species:S:1:pos:R:3:forces:R:3 energy=-0.337706550545674 pbc="F F F"
Zn       0.00000000       0.00000000       0.00000000       0.00000000       0.00000000       0.00939806
Zn       0.00000000       0.00000000       5.76484848       0.00000000       0.00000000      -0.00939806
2
Properties=species:S:1:pos:R:3:forces:R:3 energy=-0.33719169422956224 pbc="F F F"
Zn       0.00000000       0.00000000       0.00000000       0.00000000       0.00000000       0.00814467
Zn       0.00000000       0.00000000       5.82363636       0.00000000       0.00000000      -0.00814467
2
Properties=species:S:1:pos:R:3:forces:R:3 energy=-0.3367457274793569 pbc="F F F"
Zn       0.00000000       0.00000000       0.00000000       0.00000000       0.00000000       0.00706702
Zn       0.00000000       0.00000000       5.88242424       0.00000000       0.00000000      -0.00706702
2
Properties=species:S:1:pos:R:3:forces:R:3 energy=-0.3363558238648524 pbc="F F F"
Zn       0.00000000       0.00000000       0.00000000       0.00000000       0.00000000       0.00624074
Zn       0.00000000       0.00000000       5.94121212       0.00000000       0.00000000      -0.00624074
2
Properties=species:S:1:pos:R:3:forces:R:3 energy=-0.3360060079971128 pbc="F F F"
Zn       0.00000000       0.00000000       0.00000000       0.00000000       0.00000000       0.00571529
Zn       0.00000000       0.00000000       6.00000000       0.00000000       0.00000000      -0.00571529
