2
Properties=species:S:1:pos:R:3:forces:R:3 energy=6729.4303791157445 pbc="F F F"
Zr       0.00000000       0.00000000       0.00000000       0.00000000       0.00000000 -108171.56250000
Zr       0.00000000       0.00000000       0.18000000       0.00000000       0.00000000  108171.56250000
2
Properties=species:S:1:pos:R:3:forces:R:3 energy=2853.4601642719945 pbc="F F F"
Zr       0.00000000       0.00000000       0.00000000       0.00000000       0.00000000  -37994.67968750
Zr       0.00000000       0.00000000       0.23878788       0.00000000       0.00000000   37994.67968750
2
Properties=species:S:1:pos:R:3:forces:R:3 energy=1384.8240558735567 pbc="F F F"
Zr       0.00000000       0.00000000       0.00000000       0.00000000       0.00000000  -15727.36035156
Zr       0.00000000       0.00000000       0.29757576       0.00000000       0.00000000   15727.36035156
2
Properties=species:S:1:pos:R:3:forces:R:3 energy=747.0628864399631 pbc="F F F"
Zr       0.00000000       0.00000000       0.00000000       0.00000000       0.00000000   -7212.76220703
Zr       0.00000000       0.00000000       0.35636364       0.00000000       0.00000000    7212.76220703
2
Properties=species:S:1:pos:R:3:forces:R:3 energy=445.00584909278314 pbc="F F F"
Zr       0.00000000       0.00000000       0.00000000       0.00000000       0.00000000   -3543.60766602
Zr       0.00000000       0.00000000       0.41515152       0.00000000       0.00000000    3543.60766602
2
Properties=species:S:1:pos:R:3:forces:R:3 energy=293.1029865502906 pbc="F F F"
Zr       0.00000000       0.00000000       0.00000000       0.00000000       0.00000000   -1830.04931641
Zr       0.00000000       0.00000000       0.47393939       0.00000000       0.00000000    1830.04931641
2
Properties=species:S:1:pos:R:3:forces:R:3 energy=213.26204418014942 pbc="F F F"
Zr       0.00000000       0.00000000       0.00000000       0.00000000       0.00000000    -981.02777100
Zr       0.00000000       0.00000000       0.53272727       0.00000000       0.00000000     981.02777100
2
Properties=species:S:1:pos:R:3:forces:R:3 energy=169.91069532853888 pbc="F F F"
Zr       0.00000000       0.00000000       0.00000000       0.00000000       0.00000000    -540.07177734
Zr       0.00000000       0.00000000       0.59151515       0.00000000       0.00000000     540.07177734
2
Properties=species:S:1:pos:R:3:forces:R:3 energy=145.835164367029 pbc="F F F"
Zr       0.00000000       0.00000000       0.00000000       0.00000000       0.00000000    -302.90161133
Zr       0.00000000       0.00000000       0.65030303       0.00000000       0.00000000     302.90161133
2
Properties=species:S:1:pos:R:3:forces:R:3 energy=132.19574487472138 pbc="F F F"
Zr       0.00000000       0.00000000       0.00000000       0.00000000       0.00000000    -174.51899719
Zr       0.00000000       0.00000000       0.70909091       0.00000000       0.00000000     174.51899719
2
Properties=species:S:1:pos:R:3:forces:R:3 energy=124.07023380032246 pbc="F F F"
Zr       0.00000000       0.00000000       0.00000000       0.00000000       0.00000000    -110.47827911
Zr       0.00000000       0.00000000       0.76787879       0.00000000       0.00000000     110.47827911
2
Properties=species:S:1:pos:R:3:forces:R:3 energy=118.34583057103026 pbc="F F F"
Zr       0.00000000       0.00000000       0.00000000       0.00000000       0.00000000     -90.70159912
Zr       0.00000000       0.00000000       0.82666667       0.00000000       0.00000000      90.70159912
2
Properties=species:S:1:pos:R:3:forces:R:3 energy=112.71624551399324 pbc="F F F"
Zr       0.00000000       0.00000000       0.00000000       0.00000000       0.00000000    -106.13420105
Zr       0.00000000       0.00000000       0.88545455       0.00000000       0.00000000     106.13420105
2
Properties=species:S:1:pos:R:3:forces:R:3 energy=105.347379838636 pbc="F F F"
Zr       0.00000000       0.00000000       0.00000000       0.00000000       0.00000000    -147.69697571
Zr       0.00000000       0.00000000       0.94424242       0.00000000       0.00000000     147.69697571
2
Properties=species:S:1:pos:R:3:forces:R:3 energy=95.17832048436362 pbc="F F F"
Zr       0.00000000       0.00000000       0.00000000       0.00000000       0.00000000    -198.08311462
Zr       0.00000000       0.00000000       1.00303030       0.00000000       0.00000000     198.08311462
2
Properties=species:S:1:pos:R:3:forces:R:3 energy=82.24475779047152 pbc="F F F"
Zr       0.00000000       0.00000000       0.00000000       0.00000000       0.00000000    -239.05064392
Zr       0.00000000       0.00000000       1.06181818       0.00000000       0.00000000     239.05064392
2
Properties=species:S:1:pos:R:3:forces:R:3 energy=67.52720632767637 pbc="F F F"
Zr       0.00000000       0.00000000       0.00000000       0.00000000       0.00000000    -257.10220337
Zr       0.00000000       0.00000000       1.12060606       0.00000000       0.00000000     257.10220337
2
Properties=species:S:1:pos:R:3:forces:R:3 energy=52.55539025508581 pbc="F F F"
Zr       0.00000000       0.00000000       0.00000000       0.00000000       0.00000000    -248.02703857
Zr       0.00000000       0.00000000       1.17939394       0.00000000       0.00000000     248.02703857
2
Properties=species:S:1:pos:R:3:forces:R:3 energy=38.76279274716428 pbc="F F F"
Zr       0.00000000       0.00000000       0.00000000       0.00000000       0.00000000    -218.87850952
Zr       0.00000000       0.00000000       1.23818182       0.00000000       0.00000000     218.87850952
2
Properties=species:S:1:pos:R:3:forces:R:3 energy=26.95246486847692 pbc="F F F"
Zr       0.00000000       0.00000000       0.00000000       0.00000000       0.00000000    -182.95256042
Zr       0.00000000       0.00000000       1.29696970       0.00000000       0.00000000     182.95256042
2
Properties=species:S:1:pos:R:3:forces:R:3 energy=17.163806783088173 pbc="F F F"
Zr       0.00000000       0.00000000       0.00000000       0.00000000       0.00000000    -150.98522949
Zr       0.00000000       0.00000000       1.35575758       0.00000000       0.00000000     150.98522949
2
Properties=species:S:1:pos:R:3:forces:R:3 energy=9.158466770468943 pbc="F F F"
Zr       0.00000000       0.00000000       0.00000000       0.00000000       0.00000000    -121.04889679
Zr       0.00000000       0.00000000       1.41454545       0.00000000       0.00000000     121.04889679
2
Properties=species:S:1:pos:R:3:forces:R:3 energy=2.971415209162187 pbc="F F F"
Zr       0.00000000       0.00000000       0.00000000       0.00000000       0.00000000     -89.64256287
Zr       0.00000000       0.00000000       1.47333333       0.00000000       0.00000000      89.64256287
2
Properties=species:S:1:pos:R:3:forces:R:3 energy=-1.4705332433399552 pbc="F F F"
Zr       0.00000000       0.00000000       0.00000000       0.00000000       0.00000000     -62.19356918
Zr       0.00000000       0.00000000       1.53212121       0.00000000       0.00000000      62.19356918
2
Properties=species:S:1:pos:R:3:forces:R:3 energy=-4.361892251748964 pbc="F F F"
Zr       0.00000000       0.00000000       0.00000000       0.00000000       0.00000000     -36.20840836
Zr       0.00000000       0.00000000       1.59090909       0.00000000       0.00000000      36.20840836
2
Properties=species:S:1:pos:R:3:forces:R:3 energy=-5.810690056867679 pbc="F F F"
Zr       0.00000000       0.00000000       0.00000000       0.00000000       0.00000000     -14.58165169
Zr       0.00000000       0.00000000       1.64969697       0.00000000       0.00000000      14.58165169
2
Properties=species:S:1:pos:R:3:forces:R:3 energy=-6.302477863909923 pbc="F F F"
Zr       0.00000000       0.00000000       0.00000000       0.00000000       0.00000000      -4.08782244
Zr       0.00000000       0.00000000       1.70848485       0.00000000       0.00000000       4.08782244
2
Properties=species:S:1:pos:R:3:forces:R:3 energy=-6.462105755938691 pbc="F F F"
Zr       0.00000000       0.00000000       0.00000000       0.00000000       0.00000000      -2.17783689
Zr       0.00000000       0.00000000       1.76727273       0.00000000       0.00000000       2.17783689
2
Properties=species:S:1:pos:R:3:forces:R:3 energy=-6.5978134670419815 pbc="F F F"
Zr       0.00000000       0.00000000       0.00000000       0.00000000       0.00000000      -2.45345330
Zr       0.00000000       0.00000000       1.82606061       0.00000000       0.00000000       2.45345330
2
Properties=species:S:1:pos:R:3:forces:R:3 energy=-6.741153529053833 pbc="F F F"
Zr       0.00000000       0.00000000       0.00000000       0.00000000       0.00000000      -2.32973027
Zr       0.00000000       0.00000000       1.88484848       0.00000000       0.00000000       2.32973027
2
Properties=species:S:1:pos:R:3:forces:R:3 energy=-6.8641968720266515 pbc="F F F"
Zr       0.00000000       0.00000000       0.00000000       0.00000000       0.00000000      -1.82193780
Zr       0.00000000       0.00000000       1.94363636       0.00000000       0.00000000       1.82193780
2
Properties=species:S:1:pos:R:3:forces:R:3 energy=-6.953778283447698 pbc="F F F"
Zr       0.00000000       0.00000000       0.00000000       0.00000000       0.00000000      -1.22653079
Zr       0.00000000       0.00000000       2.00242424       0.00000000       0.00000000       1.22653079
2
Properties=species:S:1:pos:R:3:forces:R:3 energy=-7.009354436717518 pbc="F F F"
Zr       0.00000000       0.00000000       0.00000000       0.00000000       0.00000000      -0.67635953
Zr       0.00000000       0.00000000       2.06121212       0.00000000       0.00000000       0.67635953
2
Properties=species:S:1:pos:R:3:forces:R:3 energy=-7.034908194227475 pbc="F F F"
Zr       0.00000000       0.00000000       0.00000000       0.00000000       0.00000000      -0.20718928
Zr       0.00000000       0.00000000       2.12000000       0.00000000       0.00000000       0.20718928
2
Properties=species:S:1:pos:R:3:forces:R:3 energy=-7.035386334348855 pbc="F F F"
Zr       0.00000000       0.00000000       0.00000000       0.00000000       0.00000000       0.17680977
Zr       0.00000000       0.00000000       2.17878788       0.00000000       0.00000000      -0.17680977
2
Properties=species:S:1:pos:R:3:forces:R:3 energy=-7.015747942856203 pbc="F F F"
Zr       0.00000000       0.00000000       0.00000000       0.00000000       0.00000000       0.47770664
Zr       0.00000000       0.00000000       2.23757576       0.00000000       0.00000000      -0.47770664
2
Properties=species:S:1:pos:R:3:forces:R:3 energy=-6.9807552334703304 pbc="F F F"
Zr       0.00000000       0.00000000       0.00000000       0.00000000       0.00000000       0.70025396
Zr       0.00000000       0.00000000       2.29636364       0.00000000       0.00000000      -0.70025396
2
Properties=species:S:1:pos:R:3:forces:R:3 energy=-6.9348319318941405 pbc="F F F"
Zr       0.00000000       0.00000000       0.00000000       0.00000000       0.00000000       0.85040587
Zr       0.00000000       0.00000000       2.35515152       0.00000000       0.00000000      -0.85040587
2
Properties=species:S:1:pos:R:3:forces:R:3 energy=-6.882141201346198 pbc="F F F"
Zr       0.00000000       0.00000000       0.00000000       0.00000000       0.00000000       0.93017167
Zr       0.00000000       0.00000000       2.41393939       0.00000000       0.00000000      -0.93017167
2
Properties=species:S:1:pos:R:3:forces:R:3 energy=-6.826930653923686 pbc="F F F"
Zr       0.00000000       0.00000000       0.00000000       0.00000000       0.00000000       0.93515521
Zr       0.00000000       0.00000000       2.47272727       0.00000000       0.00000000      -0.93515521
2
Properties=species:S:1:pos:R:3:forces:R:3 energy=-6.773739598712322 pbc="F F F"
Zr       0.00000000       0.00000000       0.00000000       0.00000000       0.00000000       0.86156869
Zr       0.00000000       0.00000000       2.53151515       0.00000000       0.00000000      -0.86156869
2
Properties=species:S:1:pos:R:3:forces:R:3 energy=-6.727004760493271 pbc="F F F"
Zr       0.00000000       0.00000000       0.00000000       0.00000000       0.00000000       0.71863574
Zr       0.00000000       0.00000000       2.59030303       0.00000000       0.00000000      -0.71863574
2
Properties=species:S:1:pos:R:3:forces:R:3 energy=-6.690038556777585 pbc="F F F"
Zr       0.00000000       0.00000000       0.00000000       0.00000000       0.00000000       0.53572696
Zr       0.00000000       0.00000000       2.64909091       0.00000000       0.00000000      -0.53572696
2
Properties=species:S:1:pos:R:3:forces:R:3 energy=-6.6639077425613 pbc="F F F"
Zr       0.00000000       0.00000000       0.00000000       0.00000000       0.00000000       0.35846841
Zr       0.00000000       0.00000000       2.70787879       0.00000000       0.00000000      -0.35846841
2
Properties=species:S:1:pos:R:3:forces:R:3 energy=-6.646804236399143 pbc="F F F"
Zr       0.00000000       0.00000000       0.00000000       0.00000000       0.00000000       0.23641974
Zr       0.00000000       0.00000000       2.76666667       0.00000000       0.00000000      -0.23641974
2
Properties=species:S:1:pos:R:3:forces:R:3 energy=-6.634244971235526 pbc="F F F"
Zr       0.00000000       0.00000000       0.00000000       0.00000000       0.00000000       0.20887758
Zr       0.00000000       0.00000000       2.82545455       0.00000000       0.00000000      -0.20887758
2
Properties=species:S:1:pos:R:3:forces:R:3 energy=-6.620007807098015 pbc="F F F"
Zr       0.00000000       0.00000000       0.00000000       0.00000000       0.00000000       0.29468814
Zr       0.00000000       0.00000000       2.88424242       0.00000000       0.00000000      -0.29468814
2
Properties=species:S:1:pos:R:3:forces:R:3 energy=-6.59745955099883 pbc="F F F"
Zr       0.00000000       0.00000000       0.00000000       0.00000000       0.00000000       0.48884591
Zr       0.00000000       0.00000000       2.94303030       0.00000000       0.00000000      -0.48884591
2
Properties=species:S:1:pos:R:3:forces:R:3 energy=-6.560904749939151 pbc="F F F"
Zr       0.00000000       0.00000000       0.00000000       0.00000000       0.00000000       0.76550937
Zr       0.00000000       0.00000000       3.00181818       0.00000000       0.00000000      -0.76550937
2
Properties=species:S:1:pos:R:3:forces:R:3 energy=-6.506609251916256 pbc="F F F"
Zr       0.00000000       0.00000000       0.00000000       0.00000000       0.00000000       1.08514440
Zr       0.00000000       0.00000000       3.06060606       0.00000000       0.00000000      -1.08514440
2
Properties=species:S:1:pos:R:3:forces:R:3 energy=-6.433344729124344 pbc="F F F"
Zr       0.00000000       0.00000000       0.00000000       0.00000000       0.00000000       1.40364909
Zr       0.00000000       0.00000000       3.11939394       0.00000000       0.00000000      -1.40364909
2
Properties=species:S:1:pos:R:3:forces:R:3 energy=-6.342371190029136 pbc="F F F"
Zr       0.00000000       0.00000000       0.00000000       0.00000000       0.00000000       1.68192720
Zr       0.00000000       0.00000000       3.17818182       0.00000000       0.00000000      -1.68192720
2
Properties=species:S:1:pos:R:3:forces:R:3 energy=-6.236899646318333 pbc="F F F"
Zr       0.00000000       0.00000000       0.00000000       0.00000000       0.00000000       1.89399743
Zr       0.00000000       0.00000000       3.23696970       0.00000000       0.00000000      -1.89399743
2
Properties=species:S:1:pos:R:3:forces:R:3 energy=-6.121190017525237 pbc="F F F"
Zr       0.00000000       0.00000000       0.00000000       0.00000000       0.00000000       2.02950001
Zr       0.00000000       0.00000000       3.29575758       0.00000000       0.00000000      -2.02950001
2
Properties=species:S:1:pos:R:3:forces:R:3 energy=-5.999830390730709 pbc="F F F"
Zr       0.00000000       0.00000000       0.00000000       0.00000000       0.00000000       2.08564258
Zr       0.00000000       0.00000000       3.35454545       0.00000000       0.00000000      -2.08564258
2
Properties=species:S:1:pos:R:3:forces:R:3 energy=-5.87764277962291 pbc="F F F"
Zr       0.00000000       0.00000000       0.00000000       0.00000000       0.00000000       2.05634999
Zr       0.00000000       0.00000000       3.41333333       0.00000000       0.00000000      -2.05634999
2
Properties=species:S:1:pos:R:3:forces:R:3 energy=-5.759825682353348 pbc="F F F"
Zr       0.00000000       0.00000000       0.00000000       0.00000000       0.00000000       1.93720102
Zr       0.00000000       0.00000000       3.47212121       0.00000000       0.00000000      -1.93720102
2
Properties=species:S:1:pos:R:3:forces:R:3 energy=-5.651415436411484 pbc="F F F"
Zr       0.00000000       0.00000000       0.00000000       0.00000000       0.00000000       1.74010766
Zr       0.00000000       0.00000000       3.53090909       0.00000000       0.00000000      -1.74010766
2
Properties=species:S:1:pos:R:3:forces:R:3 energy=-5.5561859252738754 pbc="F F F"
Zr       0.00000000       0.00000000       0.00000000       0.00000000       0.00000000       1.49456263
Zr       0.00000000       0.00000000       3.58969697       0.00000000       0.00000000      -1.49456263
2
Properties=species:S:1:pos:R:3:forces:R:3 energy=-5.475928676716874 pbc="F F F"
Zr       0.00000000       0.00000000       0.00000000       0.00000000       0.00000000       1.23669350
Zr       0.00000000       0.00000000       3.64848485       0.00000000       0.00000000      -1.23669350
2
Properties=species:S:1:pos:R:3:forces:R:3 energy=-5.410379054863814 pbc="F F F"
Zr       0.00000000       0.00000000       0.00000000       0.00000000       0.00000000       0.99898016
Zr       0.00000000       0.00000000       3.70727273       0.00000000       0.00000000      -0.99898016
2
Properties=species:S:1:pos:R:3:forces:R:3 energy=-5.35761371225686 pbc="F F F"
Zr       0.00000000       0.00000000       0.00000000       0.00000000       0.00000000       0.80470937
Zr       0.00000000       0.00000000       3.76606061       0.00000000       0.00000000      -0.80470937
2
Properties=species:S:1:pos:R:3:forces:R:3 energy=-5.3146704827831135 pbc="F F F"
Zr       0.00000000       0.00000000       0.00000000       0.00000000       0.00000000       0.66589433
Zr       0.00000000       0.00000000       3.82484848       0.00000000       0.00000000      -0.66589433
2
Properties=species:S:1:pos:R:3:forces:R:3 energy=-5.27820732161292 pbc="F F F"
Zr       0.00000000       0.00000000       0.00000000       0.00000000       0.00000000       0.58360142
Zr       0.00000000       0.00000000       3.88363636       0.00000000       0.00000000      -0.58360142
2
Properties=species:S:1:pos:R:3:forces:R:3 energy=-5.245090466974459 pbc="F F F"
Zr       0.00000000       0.00000000       0.00000000       0.00000000       0.00000000       0.55026895
Zr       0.00000000       0.00000000       3.94242424       0.00000000       0.00000000      -0.55026895
2
Properties=species:S:1:pos:R:3:forces:R:3 energy=-5.212799459019776 pbc="F F F"
Zr       0.00000000       0.00000000       0.00000000       0.00000000       0.00000000       0.55314213
Zr       0.00000000       0.00000000       4.00121212       0.00000000       0.00000000      -0.55314213
2
Properties=species:S:1:pos:R:3:forces:R:3 energy=-5.179626365410525 pbc="F F F"
Zr       0.00000000       0.00000000       0.00000000       0.00000000       0.00000000       0.57790333
Zr       0.00000000       0.00000000       4.06000000       0.00000000       0.00000000      -0.57790333
2
Properties=species:S:1:pos:R:3:forces:R:3 energy=-5.14468007586036 pbc="F F F"
Zr       0.00000000       0.00000000       0.00000000       0.00000000       0.00000000       0.61152440
Zr       0.00000000       0.00000000       4.11878788       0.00000000       0.00000000      -0.61152440
2
Properties=species:S:1:pos:R:3:forces:R:3 energy=-5.10775167400138 pbc="F F F"
Zr       0.00000000       0.00000000       0.00000000       0.00000000       0.00000000       0.64392674
Zr       0.00000000       0.00000000       4.17757576       0.00000000       0.00000000      -0.64392674
2
Properties=species:S:1:pos:R:3:forces:R:3 energy=-5.069125449814541 pbc="F F F"
Zr       0.00000000       0.00000000       0.00000000       0.00000000       0.00000000       0.66847497
Zr       0.00000000       0.00000000       4.23636364       0.00000000       0.00000000      -0.66847497
2
Properties=species:S:1:pos:R:3:forces:R:3 energy=-5.029379022496985 pbc="F F F"
Zr       0.00000000       0.00000000       0.00000000       0.00000000       0.00000000       0.68166423
Zr       0.00000000       0.00000000       4.29515152       0.00000000       0.00000000      -0.68166423
2
Properties=species:S:1:pos:R:3:forces:R:3 energy=-4.989223859775466 pbc="F F F"
Zr       0.00000000       0.00000000       0.00000000       0.00000000       0.00000000       0.68240869
Zr       0.00000000       0.00000000       4.35393939       0.00000000       0.00000000      -0.68240869
2
Properties=species:S:1:pos:R:3:forces:R:3 energy=-4.949379793706005 pbc="F F F"
Zr       0.00000000       0.00000000       0.00000000       0.00000000       0.00000000       0.67121196
Zr       0.00000000       0.00000000       4.41272727       0.00000000       0.00000000      -0.67121196
2
Properties=species:S:1:pos:R:3:forces:R:3 energy=-4.910513464330975 pbc="F F F"
Zr       0.00000000       0.00000000       0.00000000       0.00000000       0.00000000       0.64940286
Zr       0.00000000       0.00000000       4.47151515       0.00000000       0.00000000      -0.64940286
2
Properties=species:S:1:pos:R:3:forces:R:3 energy=-4.873202803982365 pbc="F F F"
Zr       0.00000000       0.00000000       0.00000000       0.00000000       0.00000000       0.61851239
Zr       0.00000000       0.00000000       4.53030303       0.00000000       0.00000000      -0.61851239
2
Properties=species:S:1:pos:R:3:forces:R:3 energy=-4.837942995410347 pbc="F F F"
Zr       0.00000000       0.00000000       0.00000000       0.00000000       0.00000000       0.57988471
Zr       0.00000000       0.00000000       4.58909091       0.00000000       0.00000000      -0.57988471
2
Properties=species:S:1:pos:R:3:forces:R:3 energy=-4.805154202548123 pbc="F F F"
Zr       0.00000000       0.00000000       0.00000000       0.00000000       0.00000000       0.53456724
Zr       0.00000000       0.00000000       4.64787879       0.00000000       0.00000000      -0.53456724
2
Properties=species:S:1:pos:R:3:forces:R:3 energy=-4.775203886823691 pbc="F F F"
Zr       0.00000000       0.00000000       0.00000000       0.00000000       0.00000000       0.48346135
Zr       0.00000000       0.00000000       4.70666667       0.00000000       0.00000000      -0.48346135
2
Properties=species:S:1:pos:R:3:forces:R:3 energy=-4.74840201344569 pbc="F F F"
Zr       0.00000000       0.00000000       0.00000000       0.00000000       0.00000000       0.42770863
Zr       0.00000000       0.00000000       4.76545455       0.00000000       0.00000000      -0.42770863
2
Properties=species:S:1:pos:R:3:forces:R:3 energy=-4.72497373863685 pbc="F F F"
Zr       0.00000000       0.00000000       0.00000000       0.00000000       0.00000000       0.36901143
Zr       0.00000000       0.00000000       4.82424242       0.00000000       0.00000000      -0.36901143
2
Properties=species:S:1:pos:R:3:forces:R:3 energy=-4.7050264825274954 pbc="F F F"
Zr       0.00000000       0.00000000       0.00000000       0.00000000       0.00000000       0.30979586
Zr       0.00000000       0.00000000       4.88303030       0.00000000       0.00000000      -0.30979586
2
Properties=species:S:1:pos:R:3:forces:R:3 energy=-4.688502519536273 pbc="F F F"
Zr       0.00000000       0.00000000       0.00000000       0.00000000       0.00000000       0.25299543
Zr       0.00000000       0.00000000       4.94181818       0.00000000       0.00000000      -0.25299543
2
Properties=species:S:1:pos:R:3:forces:R:3 energy=-4.675172709795002 pbc="F F F"
Zr       0.00000000       0.00000000       0.00000000       0.00000000       0.00000000       0.20160729
Zr       0.00000000       0.00000000       5.00060606       0.00000000       0.00000000      -0.20160729
2
Properties=species:S:1:pos:R:3:forces:R:3 energy=-4.664643130519382 pbc="F F F"
Zr       0.00000000       0.00000000       0.00000000       0.00000000       0.00000000       0.15806608
Zr       0.00000000       0.00000000       5.05939394       0.00000000       0.00000000      -0.15806608
2
Properties=species:S:1:pos:R:3:forces:R:3 energy=-4.656405793473992 pbc="F F F"
Zr       0.00000000       0.00000000       0.00000000       0.00000000       0.00000000       0.12376411
Zr       0.00000000       0.00000000       5.11818182       0.00000000       0.00000000      -0.12376411
2
Properties=species:S:1:pos:R:3:forces:R:3 energy=-4.649907315858718 pbc="F F F"
Zr       0.00000000       0.00000000       0.00000000       0.00000000       0.00000000       0.09884247
Zr       0.00000000       0.00000000       5.17696970       0.00000000       0.00000000      -0.09884247
2
Properties=species:S:1:pos:R:3:forces:R:3 energy=-4.644620287491374 pbc="F F F"
Zr       0.00000000       0.00000000       0.00000000       0.00000000       0.00000000       0.08230110
Zr       0.00000000       0.00000000       5.23575758       0.00000000       0.00000000      -0.08230110
2
Properties=species:S:1:pos:R:3:forces:R:3 energy=-4.640101845750434 pbc="F F F"
Zr       0.00000000       0.00000000       0.00000000       0.00000000       0.00000000       0.07234558
Zr       0.00000000       0.00000000       5.29454545       0.00000000       0.00000000      -0.07234558
2
Properties=species:S:1:pos:R:3:forces:R:3 energy=-4.636026463297344 pbc="F F F"
Zr       0.00000000       0.00000000       0.00000000       0.00000000       0.00000000       0.06685309
Zr       0.00000000       0.00000000       5.35333333       0.00000000       0.00000000      -0.06685309
2
Properties=species:S:1:pos:R:3:forces:R:3 energy=-4.632193921259686 pbc="F F F"
Zr       0.00000000       0.00000000       0.00000000       0.00000000       0.00000000       0.06379162
Zr       0.00000000       0.00000000       5.41212121       0.00000000       0.00000000      -0.06379162
2
Properties=species:S:1:pos:R:3:forces:R:3 energy=-4.62851074426023 pbc="F F F"
Zr       0.00000000       0.00000000       0.00000000       0.00000000       0.00000000       0.06153159
Zr       0.00000000       0.00000000       5.47090909       0.00000000       0.00000000      -0.06153159
2
Properties=species:S:1:pos:R:3:forces:R:3 energy=-4.624964807670302 pbc="F F F"
Zr       0.00000000       0.00000000       0.00000000       0.00000000       0.00000000       0.05899151
Zr       0.00000000       0.00000000       5.52969697       0.00000000       0.00000000      -0.05899151
2
Properties=species:S:1:pos:R:3:forces:R:3 energy=-4.621590979991823 pbc="F F F"
Zr       0.00000000       0.00000000       0.00000000       0.00000000       0.00000000       0.05564497
Zr       0.00000000       0.00000000       5.58848485       0.00000000       0.00000000      -0.05564497
2
Properties=species:S:1:pos:R:3:forces:R:3 energy=-4.618439752975174 pbc="F F F"
Zr       0.00000000       0.00000000       0.00000000       0.00000000       0.00000000       0.05143474
Zr       0.00000000       0.00000000       5.64727273       0.00000000       0.00000000      -0.05143474
2
Properties=species:S:1:pos:R:3:forces:R:3 energy=-4.615555593877745 pbc="F F F"
Zr       0.00000000       0.00000000       0.00000000       0.00000000       0.00000000       0.04661948
Zr       0.00000000       0.00000000       5.70606061       0.00000000       0.00000000      -0.04661948
2
Properties=species:S:1:pos:R:3:forces:R:3 energy=-4.612960869216911 pbc="F F F"
Zr       0.00000000       0.00000000       0.00000000       0.00000000       0.00000000       0.04163042
Zr       0.00000000       0.00000000       5.76484848       0.00000000       0.00000000      -0.04163042
2
Properties=species:S:1:pos:R:3:forces:R:3 energy=-4.6106544807828245 pbc="F F F"
Zr       0.00000000       0.00000000       0.00000000       0.00000000       0.00000000       0.03693403
Zr       0.00000000       0.00000000       5.82363636       0.00000000       0.00000000      -0.03693403
2
Properties=species:S:1:pos:R:3:forces:R:3 energy=-4.608605565385046 pbc="F F F"
Zr       0.00000000       0.00000000       0.00000000       0.00000000       0.00000000       0.03293744
Zr       0.00000000       0.00000000       5.88242424       0.00000000       0.00000000      -0.03293744
2
Properties=species:S:1:pos:R:3:forces:R:3 energy=-4.60676221730557 pbc="F F F"
Zr       0.00000000       0.00000000       0.00000000       0.00000000       0.00000000       0.02994457
Zr       0.00000000       0.00000000       5.94121212       0.00000000       0.00000000      -0.02994457
2
Properties=species:S:1:pos:R:3:forces:R:3 energy=-4.6050610630558495 pbc="F F F"
Zr       0.00000000       0.00000000       0.00000000       0.00000000       0.00000000       0.02814879
Zr       0.00000000       0.00000000       6.00000000       0.00000000       0.00000000      -0.02814879
