2
Properties=species:S:1:pos:R:3:forces:R:3 energy=-680632.4913657143 pbc="F F F"
Ac       0.00000000       0.00000000       0.00000000       0.00000000       0.00000000 3726546.25000000
Ac       0.00000000       0.00000000       0.10000000       0.00000000       0.00000000 -3726546.25000000
2
Properties=species:S:1:pos:R:3:forces:R:3 energy=-442979.8663657144 pbc="F F F"
Ac       0.00000000       0.00000000       0.00000000       0.00000000       0.00000000 3982694.25000000
Ac       0.00000000       0.00000000       0.15959596       0.00000000       0.00000000 -3982694.25000000
2
Properties=species:S:1:pos:R:3:forces:R:3 energy=-230562.0069907144 pbc="F F F"
Ac       0.00000000       0.00000000       0.00000000       0.00000000       0.00000000 3011848.25000000
Ac       0.00000000       0.00000000       0.21919192       0.00000000       0.00000000 -3011848.25000000
2
Properties=species:S:1:pos:R:3:forces:R:3 energy=-91654.21792821439 pbc="F F F"
Ac       0.00000000       0.00000000       0.00000000       0.00000000       0.00000000 1660202.00000000
Ac       0.00000000       0.00000000       0.27878788       0.00000000       0.00000000 -1660202.00000000
2
Properties=species:S:1:pos:R:3:forces:R:3 energy=-25743.368318839395 pbc="F F F"
Ac       0.00000000       0.00000000       0.00000000       0.00000000       0.00000000  636940.56250000
Ac       0.00000000       0.00000000       0.33838384       0.00000000       0.00000000 -636940.56250000
2
Properties=species:S:1:pos:R:3:forces:R:3 energy=-5023.438143058144 pbc="F F F"
Ac       0.00000000       0.00000000       0.00000000       0.00000000       0.00000000  156172.37500000
Ac       0.00000000       0.00000000       0.39797980       0.00000000       0.00000000 -156172.37500000
2
Properties=species:S:1:pos:R:3:forces:R:3 energy=-573.2701742954733 pbc="F F F"
Ac       0.00000000       0.00000000       0.00000000       0.00000000       0.00000000   22758.14843750
Ac       0.00000000       0.00000000       0.45757576       0.00000000       0.00000000  -22758.14843750
2
Properties=species:S:1:pos:R:3:forces:R:3 energy=-49.27998569684054 pbc="F F F"
Ac       0.00000000       0.00000000       0.00000000       0.00000000       0.00000000    2360.98266602
Ac       0.00000000       0.00000000       0.51717172       0.00000000       0.00000000   -2360.98266602
2
Properties=species:S:1:pos:R:3:forces:R:3 energy=-0.2087395243422015 pbc="F F F"
Ac       0.00000000       0.00000000       0.00000000       0.00000000       0.00000000     381.09439087
Ac       0.00000000       0.00000000       0.57676768       0.00000000       0.00000000    -381.09439087
2
Properties=species:S:1:pos:R:3:forces:R:3 energy=39.156274564562 pbc="F F F"
Ac       0.00000000       0.00000000       0.00000000       0.00000000       0.00000000     266.14648438
Ac       0.00000000       0.00000000       0.63636364       0.00000000       0.00000000    -266.14648438
2
Properties=species:S:1:pos:R:3:forces:R:3 energy=38.99606495948543 pbc="F F F"
Ac       0.00000000       0.00000000       0.00000000       0.00000000       0.00000000    -134.40881348
Ac       0.00000000       0.00000000       0.69595960       0.00000000       0.00000000     134.40881348
2
Properties=species:S:1:pos:R:3:forces:R:3 energy=29.703760042837384 pbc="F F F"
Ac       0.00000000       0.00000000       0.00000000       0.00000000       0.00000000    -157.19232178
Ac       0.00000000       0.00000000       0.75555556       0.00000000       0.00000000     157.19232178
2
Properties=species:S:1:pos:R:3:forces:R:3 energy=22.350767107390507 pbc="F F F"
Ac       0.00000000       0.00000000       0.00000000       0.00000000       0.00000000    -108.11070251
Ac       0.00000000       0.00000000       0.81515152       0.00000000       0.00000000     108.11070251
2
Properties=species:S:1:pos:R:3:forces:R:3 energy=16.57940495475847 pbc="F F F"
Ac       0.00000000       0.00000000       0.00000000       0.00000000       0.00000000     -84.94845581
Ac       0.00000000       0.00000000       0.87474747       0.00000000       0.00000000      84.94845581
2
Properties=species:S:1:pos:R:3:forces:R:3 energy=12.17937406771637 pbc="F F F"
Ac       0.00000000       0.00000000       0.00000000       0.00000000       0.00000000     -64.93280792
Ac       0.00000000       0.00000000       0.93434343       0.00000000       0.00000000      64.93280792
2
Properties=species:S:1:pos:R:3:forces:R:3 energy=8.528812060107766 pbc="F F F"
Ac       0.00000000       0.00000000       0.00000000       0.00000000       0.00000000     -58.78723526
Ac       0.00000000       0.00000000       0.99393939       0.00000000       0.00000000      58.78723526
2
Properties=species:S:1:pos:R:3:forces:R:3 energy=5.172156340379922 pbc="F F F"
Ac       0.00000000       0.00000000       0.00000000       0.00000000       0.00000000     -52.07368469
Ac       0.00000000       0.00000000       1.05353535       0.00000000       0.00000000      52.07368469
2
Properties=species:S:1:pos:R:3:forces:R:3 energy=2.448994196169454 pbc="F F F"
Ac       0.00000000       0.00000000       0.00000000       0.00000000       0.00000000     -35.02595520
Ac       0.00000000       0.00000000       1.11313131       0.00000000       0.00000000      35.02595520
2
Properties=species:S:1:pos:R:3:forces:R:3 energy=0.9612972537581012 pbc="F F F"
Ac       0.00000000       0.00000000       0.00000000       0.00000000       0.00000000     -17.89656830
Ac       0.00000000       0.00000000       1.17272727       0.00000000       0.00000000      17.89656830
2
Properties=species:S:1:pos:R:3:forces:R:3 energy=-0.24787223875726244 pbc="F F F"
Ac       0.00000000       0.00000000       0.00000000       0.00000000       0.00000000     -17.48019409
Ac       0.00000000       0.00000000       1.23232323       0.00000000       0.00000000      17.48019409
2
Properties=species:S:1:pos:R:3:forces:R:3 energy=-0.7610576037993928 pbc="F F F"
Ac       0.00000000       0.00000000       0.00000000       0.00000000       0.00000000      -0.84657454
Ac       0.00000000       0.00000000       1.29191919       0.00000000       0.00000000       0.84657454
2
Properties=species:S:1:pos:R:3:forces:R:3 energy=-0.3761732830167297 pbc="F F F"
Ac       0.00000000       0.00000000       0.00000000       0.00000000       0.00000000      13.02640629
Ac       0.00000000       0.00000000       1.35151515       0.00000000       0.00000000     -13.02640629
2
Properties=species:S:1:pos:R:3:forces:R:3 energy=0.5283580244830105 pbc="F F F"
Ac       0.00000000       0.00000000       0.00000000       0.00000000       0.00000000      14.94784737
Ac       0.00000000       0.00000000       1.41111111       0.00000000       0.00000000     -14.94784737
2
Properties=species:S:1:pos:R:3:forces:R:3 energy=1.2871397297014842 pbc="F F F"
Ac       0.00000000       0.00000000       0.00000000       0.00000000       0.00000000      11.32030392
Ac       0.00000000       0.00000000       1.47070707       0.00000000       0.00000000     -11.32030392
2
Properties=species:S:1:pos:R:3:forces:R:3 energy=1.965039869322771 pbc="F F F"
Ac       0.00000000       0.00000000       0.00000000       0.00000000       0.00000000      10.69139481
Ac       0.00000000       0.00000000       1.53030303       0.00000000       0.00000000     -10.69139481
2
Properties=species:S:1:pos:R:3:forces:R:3 energy=2.4669028287747974 pbc="F F F"
Ac       0.00000000       0.00000000       0.00000000       0.00000000       0.00000000       6.04345846
Ac       0.00000000       0.00000000       1.58989899       0.00000000       0.00000000      -6.04345846
2
Properties=species:S:1:pos:R:3:forces:R:3 energy=2.7439606785810935 pbc="F F F"
Ac       0.00000000       0.00000000       0.00000000       0.00000000       0.00000000       3.27562237
Ac       0.00000000       0.00000000       1.64949495       0.00000000       0.00000000      -3.27562237
2
Properties=species:S:1:pos:R:3:forces:R:3 energy=2.8245071424023975 pbc="F F F"
Ac       0.00000000       0.00000000       0.00000000       0.00000000       0.00000000      -0.77418184
Ac       0.00000000       0.00000000       1.70909091       0.00000000       0.00000000       0.77418184
2
Properties=species:S:1:pos:R:3:forces:R:3 energy=2.6740870602454425 pbc="F F F"
Ac       0.00000000       0.00000000       0.00000000       0.00000000       0.00000000      -4.00948095
Ac       0.00000000       0.00000000       1.76868687       0.00000000       0.00000000       4.00948095
2
Properties=species:S:1:pos:R:3:forces:R:3 energy=2.3766267850323914 pbc="F F F"
Ac       0.00000000       0.00000000       0.00000000       0.00000000       0.00000000      -5.75357199
Ac       0.00000000       0.00000000       1.82828283       0.00000000       0.00000000       5.75357199
2
Properties=species:S:1:pos:R:3:forces:R:3 energy=2.0081048239602075 pbc="F F F"
Ac       0.00000000       0.00000000       0.00000000       0.00000000       0.00000000      -6.13843536
Ac       0.00000000       0.00000000       1.88787879       0.00000000       0.00000000       6.13843536
2
Properties=species:S:1:pos:R:3:forces:R:3 energy=1.6555755690375775 pbc="F F F"
Ac       0.00000000       0.00000000       0.00000000       0.00000000       0.00000000      -5.86042118
Ac       0.00000000       0.00000000       1.94747475       0.00000000       0.00000000       5.86042118
2
Properties=species:S:1:pos:R:3:forces:R:3 energy=1.3006266709921293 pbc="F F F"
Ac       0.00000000       0.00000000       0.00000000       0.00000000       0.00000000      -6.06214190
Ac       0.00000000       0.00000000       2.00707071       0.00000000       0.00000000       6.06214190
2
Properties=species:S:1:pos:R:3:forces:R:3 energy=0.923239831016528 pbc="F F F"
Ac       0.00000000       0.00000000       0.00000000       0.00000000       0.00000000      -6.61301517
Ac       0.00000000       0.00000000       2.06666667       0.00000000       0.00000000       6.61301517
2
Properties=species:S:1:pos:R:3:forces:R:3 energy=0.5369441390603731 pbc="F F F"
Ac       0.00000000       0.00000000       0.00000000       0.00000000       0.00000000      -6.14514446
Ac       0.00000000       0.00000000       2.12626263       0.00000000       0.00000000       6.14514446
2
Properties=species:S:1:pos:R:3:forces:R:3 energy=0.1937065410673069 pbc="F F F"
Ac       0.00000000       0.00000000       0.00000000       0.00000000       0.00000000      -5.42263460
Ac       0.00000000       0.00000000       2.18585859       0.00000000       0.00000000       5.42263460
2
Properties=species:S:1:pos:R:3:forces:R:3 energy=-0.10795362636610342 pbc="F F F"
Ac       0.00000000       0.00000000       0.00000000       0.00000000       0.00000000      -4.68824244
Ac       0.00000000       0.00000000       2.24545455       0.00000000       0.00000000       4.68824244
2
Properties=species:S:1:pos:R:3:forces:R:3 energy=-0.3699929608123314 pbc="F F F"
Ac       0.00000000       0.00000000       0.00000000       0.00000000       0.00000000      -4.15098143
Ac       0.00000000       0.00000000       2.30505051       0.00000000       0.00000000       4.15098143
2
Properties=species:S:1:pos:R:3:forces:R:3 energy=-0.6069183124774482 pbc="F F F"
Ac       0.00000000       0.00000000       0.00000000       0.00000000       0.00000000      -3.84698129
Ac       0.00000000       0.00000000       2.36464646       0.00000000       0.00000000       3.84698129
2
Properties=species:S:1:pos:R:3:forces:R:3 energy=-0.8342436369882273 pbc="F F F"
Ac       0.00000000       0.00000000       0.00000000       0.00000000       0.00000000      -3.81460905
Ac       0.00000000       0.00000000       2.42424242       0.00000000       0.00000000       3.81460905
2
Properties=species:S:1:pos:R:3:forces:R:3 energy=-1.0634725500867792 pbc="F F F"
Ac       0.00000000       0.00000000       0.00000000       0.00000000       0.00000000      -3.87419820
Ac       0.00000000       0.00000000       2.48383838       0.00000000       0.00000000       3.87419820
2
Properties=species:S:1:pos:R:3:forces:R:3 energy=-1.2931196486683383 pbc="F F F"
Ac       0.00000000       0.00000000       0.00000000       0.00000000       0.00000000      -3.80600357
Ac       0.00000000       0.00000000       2.54343434       0.00000000       0.00000000       3.80600357
2
Properties=species:S:1:pos:R:3:forces:R:3 energy=-1.5166860130616373 pbc="F F F"
Ac       0.00000000       0.00000000       0.00000000       0.00000000       0.00000000      -3.71410751
Ac       0.00000000       0.00000000       2.60303030       0.00000000       0.00000000       3.71410751
2
Properties=species:S:1:pos:R:3:forces:R:3 energy=-1.7383070698699237 pbc="F F F"
Ac       0.00000000       0.00000000       0.00000000       0.00000000       0.00000000      -3.73686028
Ac       0.00000000       0.00000000       2.66262626       0.00000000       0.00000000       3.73686028
2
Properties=species:S:1:pos:R:3:forces:R:3 energy=-1.9618482798371695 pbc="F F F"
Ac       0.00000000       0.00000000       0.00000000       0.00000000       0.00000000      -3.74911451
Ac       0.00000000       0.00000000       2.72222222       0.00000000       0.00000000       3.74911451
2
Properties=species:S:1:pos:R:3:forces:R:3 energy=-2.1828084935869385 pbc="F F F"
Ac       0.00000000       0.00000000       0.00000000       0.00000000       0.00000000      -3.64887071
Ac       0.00000000       0.00000000       2.78181818       0.00000000       0.00000000       3.64887071
2
Properties=species:S:1:pos:R:3:forces:R:3 energy=-2.3954028147426025 pbc="F F F"
Ac       0.00000000       0.00000000       0.00000000       0.00000000       0.00000000      -3.47930789
Ac       0.00000000       0.00000000       2.84141414       0.00000000       0.00000000       3.47930789
2
Properties=species:S:1:pos:R:3:forces:R:3 energy=-2.597108351912935 pbc="F F F"
Ac       0.00000000       0.00000000       0.00000000       0.00000000       0.00000000      -3.28835535
Ac       0.00000000       0.00000000       2.90101010       0.00000000       0.00000000       3.28835535
2
Properties=species:S:1:pos:R:3:forces:R:3 energy=-2.787324757772142 pbc="F F F"
Ac       0.00000000       0.00000000       0.00000000       0.00000000       0.00000000      -3.09576392
Ac       0.00000000       0.00000000       2.96060606       0.00000000       0.00000000       3.09576392
2
Properties=species:S:1:pos:R:3:forces:R:3 energy=-2.966179789992428 pbc="F F F"
Ac       0.00000000       0.00000000       0.00000000       0.00000000       0.00000000      -2.90691543
Ac       0.00000000       0.00000000       3.02020202       0.00000000       0.00000000       2.90691543
2
Properties=species:S:1:pos:R:3:forces:R:3 energy=-3.1337241566951777 pbc="F F F"
Ac       0.00000000       0.00000000       0.00000000       0.00000000       0.00000000      -2.71392035
Ac       0.00000000       0.00000000       3.07979798       0.00000000       0.00000000       2.71392035
2
Properties=species:S:1:pos:R:3:forces:R:3 energy=-3.2893507461353617 pbc="F F F"
Ac       0.00000000       0.00000000       0.00000000       0.00000000       0.00000000      -2.50607419
Ac       0.00000000       0.00000000       3.13939394       0.00000000       0.00000000       2.50607419
2
Properties=species:S:1:pos:R:3:forces:R:3 energy=-3.4322060057843724 pbc="F F F"
Ac       0.00000000       0.00000000       0.00000000       0.00000000       0.00000000      -2.28735399
Ac       0.00000000       0.00000000       3.19898990       0.00000000       0.00000000       2.28735399
2
Properties=species:S:1:pos:R:3:forces:R:3 energy=-3.562053587794356 pbc="F F F"
Ac       0.00000000       0.00000000       0.00000000       0.00000000       0.00000000      -2.07182431
Ac       0.00000000       0.00000000       3.25858586       0.00000000       0.00000000       2.07182431
2
Properties=species:S:1:pos:R:3:forces:R:3 energy=-3.6794078967445687 pbc="F F F"
Ac       0.00000000       0.00000000       0.00000000       0.00000000       0.00000000      -1.86903262
Ac       0.00000000       0.00000000       3.31818182       0.00000000       0.00000000       1.86903262
2
Properties=species:S:1:pos:R:3:forces:R:3 energy=-3.7851524091747155 pbc="F F F"
Ac       0.00000000       0.00000000       0.00000000       0.00000000       0.00000000      -1.68257165
Ac       0.00000000       0.00000000       3.37777778       0.00000000       0.00000000       1.68257165
2
Properties=species:S:1:pos:R:3:forces:R:3 energy=-3.8802778646425207 pbc="F F F"
Ac       0.00000000       0.00000000       0.00000000       0.00000000       0.00000000      -1.51208329
Ac       0.00000000       0.00000000       3.43737374       0.00000000       0.00000000       1.51208329
2
Properties=species:S:1:pos:R:3:forces:R:3 energy=-3.965611670971831 pbc="F F F"
Ac       0.00000000       0.00000000       0.00000000       0.00000000       0.00000000      -1.35308218
Ac       0.00000000       0.00000000       3.49696970       0.00000000       0.00000000       1.35308218
2
Properties=species:S:1:pos:R:3:forces:R:3 energy=-4.041657889708077 pbc="F F F"
Ac       0.00000000       0.00000000       0.00000000       0.00000000       0.00000000      -1.19947457
Ac       0.00000000       0.00000000       3.55656566       0.00000000       0.00000000       1.19947457
2
Properties=species:S:1:pos:R:3:forces:R:3 energy=-4.108612094097908 pbc="F F F"
Ac       0.00000000       0.00000000       0.00000000       0.00000000       0.00000000      -1.04769456
Ac       0.00000000       0.00000000       3.61616162       0.00000000       0.00000000       1.04769456
2
Properties=species:S:1:pos:R:3:forces:R:3 energy=-4.166576207235639 pbc="F F F"
Ac       0.00000000       0.00000000       0.00000000       0.00000000       0.00000000      -0.89807779
Ac       0.00000000       0.00000000       3.67575758       0.00000000       0.00000000       0.89807779
2
Properties=species:S:1:pos:R:3:forces:R:3 energy=-4.215750266628575 pbc="F F F"
Ac       0.00000000       0.00000000       0.00000000       0.00000000       0.00000000      -0.75330013
Ac       0.00000000       0.00000000       3.73535354       0.00000000       0.00000000       0.75330013
2
Properties=species:S:1:pos:R:3:forces:R:3 energy=-4.256517427924062 pbc="F F F"
Ac       0.00000000       0.00000000       0.00000000       0.00000000       0.00000000      -0.61621445
Ac       0.00000000       0.00000000       3.79494949       0.00000000       0.00000000       0.61621445
2
Properties=species:S:1:pos:R:3:forces:R:3 energy=-4.289388913224382 pbc="F F F"
Ac       0.00000000       0.00000000       0.00000000       0.00000000       0.00000000      -0.48860833
Ac       0.00000000       0.00000000       3.85454545       0.00000000       0.00000000       0.48860833
2
Properties=species:S:1:pos:R:3:forces:R:3 energy=-4.314954686119367 pbc="F F F"
Ac       0.00000000       0.00000000       0.00000000       0.00000000       0.00000000      -0.37102628
Ac       0.00000000       0.00000000       3.91414141       0.00000000       0.00000000       0.37102628
2
Properties=species:S:1:pos:R:3:forces:R:3 energy=-4.33380606468259 pbc="F F F"
Ac       0.00000000       0.00000000       0.00000000       0.00000000       0.00000000      -0.26315519
Ac       0.00000000       0.00000000       3.97373737       0.00000000       0.00000000       0.26315519
2
Properties=species:S:1:pos:R:3:forces:R:3 energy=-4.346501503237573 pbc="F F F"
Ac       0.00000000       0.00000000       0.00000000       0.00000000       0.00000000      -0.16429497
Ac       0.00000000       0.00000000       4.03333333       0.00000000       0.00000000       0.16429497
2
Properties=species:S:1:pos:R:3:forces:R:3 energy=-4.35355352768519 pbc="F F F"
Ac       0.00000000       0.00000000       0.00000000       0.00000000       0.00000000      -0.07377394
Ac       0.00000000       0.00000000       4.09292929       0.00000000       0.00000000       0.07377394
2
Properties=species:S:1:pos:R:3:forces:R:3 energy=-4.355450923438712 pbc="F F F"
Ac       0.00000000       0.00000000       0.00000000       0.00000000       0.00000000       0.00866934
Ac       0.00000000       0.00000000       4.15252525       0.00000000       0.00000000      -0.00866934
2
Properties=species:S:1:pos:R:3:forces:R:3 energy=-4.352687733791439 pbc="F F F"
Ac       0.00000000       0.00000000       0.00000000       0.00000000       0.00000000       0.08267932
Ac       0.00000000       0.00000000       4.21212121       0.00000000       0.00000000      -0.08267932
2
Properties=species:S:1:pos:R:3:forces:R:3 energy=-4.345782797568896 pbc="F F F"
Ac       0.00000000       0.00000000       0.00000000       0.00000000       0.00000000       0.14739573
Ac       0.00000000       0.00000000       4.27171717       0.00000000       0.00000000      -0.14739573
2
Properties=species:S:1:pos:R:3:forces:R:3 energy=-4.335323255351832 pbc="F F F"
Ac       0.00000000       0.00000000       0.00000000       0.00000000       0.00000000       0.20187835
Ac       0.00000000       0.00000000       4.33131313       0.00000000       0.00000000      -0.20187835
2
Properties=species:S:1:pos:R:3:forces:R:3 energy=-4.321935348367965 pbc="F F F"
Ac       0.00000000       0.00000000       0.00000000       0.00000000       0.00000000       0.24560100
Ac       0.00000000       0.00000000       4.39090909       0.00000000       0.00000000      -0.24560100
2
Properties=species:S:1:pos:R:3:forces:R:3 energy=-4.306259336191932 pbc="F F F"
Ac       0.00000000       0.00000000       0.00000000       0.00000000       0.00000000       0.27876064
Ac       0.00000000       0.00000000       4.45050505       0.00000000       0.00000000      -0.27876064
2
Properties=species:S:1:pos:R:3:forces:R:3 energy=-4.288901800358177 pbc="F F F"
Ac       0.00000000       0.00000000       0.00000000       0.00000000       0.00000000       0.30226609
Ac       0.00000000       0.00000000       4.51010101       0.00000000       0.00000000      -0.30226609
2
Properties=species:S:1:pos:R:3:forces:R:3 energy=-4.270395514011932 pbc="F F F"
Ac       0.00000000       0.00000000       0.00000000       0.00000000       0.00000000       0.31749335
Ac       0.00000000       0.00000000       4.56969697       0.00000000       0.00000000      -0.31749335
2
Properties=species:S:1:pos:R:3:forces:R:3 energy=-4.251192002584013 pbc="F F F"
Ac       0.00000000       0.00000000       0.00000000       0.00000000       0.00000000       0.32597992
Ac       0.00000000       0.00000000       4.62929293       0.00000000       0.00000000      -0.32597992
2
Properties=species:S:1:pos:R:3:forces:R:3 energy=-4.231647702841944 pbc="F F F"
Ac       0.00000000       0.00000000       0.00000000       0.00000000       0.00000000       0.32919022
Ac       0.00000000       0.00000000       4.68888889       0.00000000       0.00000000      -0.32919022
2
Properties=species:S:1:pos:R:3:forces:R:3 energy=-4.212033474290546 pbc="F F F"
Ac       0.00000000       0.00000000       0.00000000       0.00000000       0.00000000       0.32839540
Ac       0.00000000       0.00000000       4.74848485       0.00000000       0.00000000      -0.32839540
2
Properties=species:S:1:pos:R:3:forces:R:3 energy=-4.192559960240339 pbc="F F F"
Ac       0.00000000       0.00000000       0.00000000       0.00000000       0.00000000       0.32465380
Ac       0.00000000       0.00000000       4.80808081       0.00000000       0.00000000      -0.32465380
2
Properties=species:S:1:pos:R:3:forces:R:3 energy=-4.1733804995156465 pbc="F F F"
Ac       0.00000000       0.00000000       0.00000000       0.00000000       0.00000000       0.31882149
Ac       0.00000000       0.00000000       4.86767677       0.00000000       0.00000000      -0.31882149
2
Properties=species:S:1:pos:R:3:forces:R:3 energy=-4.1545901854515686 pbc="F F F"
Ac       0.00000000       0.00000000       0.00000000       0.00000000       0.00000000       0.31153470
Ac       0.00000000       0.00000000       4.92727273       0.00000000       0.00000000      -0.31153470
2
Properties=species:S:1:pos:R:3:forces:R:3 energy=-4.136268787573863 pbc="F F F"
Ac       0.00000000       0.00000000       0.00000000       0.00000000       0.00000000       0.30315688
Ac       0.00000000       0.00000000       4.98686869       0.00000000       0.00000000      -0.30315688
2
Properties=species:S:1:pos:R:3:forces:R:3 energy=-4.118478449776534 pbc="F F F"
Ac       0.00000000       0.00000000       0.00000000       0.00000000       0.00000000       0.29374218
Ac       0.00000000       0.00000000       5.04646465       0.00000000       0.00000000      -0.29374218
2
Properties=species:S:1:pos:R:3:forces:R:3 energy=-4.101283654126025 pbc="F F F"
Ac       0.00000000       0.00000000       0.00000000       0.00000000       0.00000000       0.28301829
Ac       0.00000000       0.00000000       5.10606061       0.00000000       0.00000000      -0.28301829
2
Properties=species:S:1:pos:R:3:forces:R:3 energy=-4.084778966115425 pbc="F F F"
Ac       0.00000000       0.00000000       0.00000000       0.00000000       0.00000000       0.27047911
Ac       0.00000000       0.00000000       5.16565657       0.00000000       0.00000000      -0.27047911
2
Properties=species:S:1:pos:R:3:forces:R:3 energy=-4.069092824019152 pbc="F F F"
Ac       0.00000000       0.00000000       0.00000000       0.00000000       0.00000000       0.25554511
Ac       0.00000000       0.00000000       5.22525253       0.00000000       0.00000000      -0.25554511
2
Properties=species:S:1:pos:R:3:forces:R:3 energy=-4.054378453644367 pbc="F F F"
Ac       0.00000000       0.00000000       0.00000000       0.00000000       0.00000000       0.23773225
Ac       0.00000000       0.00000000       5.28484848       0.00000000       0.00000000      -0.23773225
2
Properties=species:S:1:pos:R:3:forces:R:3 energy=-4.040817733713402 pbc="F F F"
Ac       0.00000000       0.00000000       0.00000000       0.00000000       0.00000000       0.21688291
Ac       0.00000000       0.00000000       5.34444444       0.00000000       0.00000000      -0.21688291
2
Properties=species:S:1:pos:R:3:forces:R:3 energy=-4.028582470683626 pbc="F F F"
Ac       0.00000000       0.00000000       0.00000000       0.00000000       0.00000000       0.19324623
Ac       0.00000000       0.00000000       5.40404040       0.00000000       0.00000000      -0.19324623
2
Properties=species:S:1:pos:R:3:forces:R:3 energy=-4.017821053642672 pbc="F F F"
Ac       0.00000000       0.00000000       0.00000000       0.00000000       0.00000000       0.16757256
Ac       0.00000000       0.00000000       5.46363636       0.00000000       0.00000000      -0.16757256
2
Properties=species:S:1:pos:R:3:forces:R:3 energy=-4.008628407231816 pbc="F F F"
Ac       0.00000000       0.00000000       0.00000000       0.00000000       0.00000000       0.14103265
Ac       0.00000000       0.00000000       5.52323232       0.00000000       0.00000000      -0.14103265
2
Properties=species:S:1:pos:R:3:forces:R:3 energy=-4.001003470775524 pbc="F F F"
Ac       0.00000000       0.00000000       0.00000000       0.00000000       0.00000000       0.11506894
Ac       0.00000000       0.00000000       5.58282828       0.00000000       0.00000000      -0.11506894
2
Properties=species:S:1:pos:R:3:forces:R:3 energy=-3.994867210387515 pbc="F F F"
Ac       0.00000000       0.00000000       0.00000000       0.00000000       0.00000000       0.09124213
Ac       0.00000000       0.00000000       5.64242424       0.00000000       0.00000000      -0.09124213
2
Properties=species:S:1:pos:R:3:forces:R:3 energy=-3.990057913955614 pbc="F F F"
Ac       0.00000000       0.00000000       0.00000000       0.00000000       0.00000000       0.07091565
Ac       0.00000000       0.00000000       5.70202020       0.00000000       0.00000000      -0.07091565
2
Properties=species:S:1:pos:R:3:forces:R:3 energy=-3.9863286612361493 pbc="F F F"
Ac       0.00000000       0.00000000       0.00000000       0.00000000       0.00000000       0.05511836
Ac       0.00000000       0.00000000       5.76161616       0.00000000       0.00000000      -0.05511836
2
Properties=species:S:1:pos:R:3:forces:R:3 energy=-3.9833901314922335 pbc="F F F"
Ac       0.00000000       0.00000000       0.00000000       0.00000000       0.00000000       0.04424844
Ac       0.00000000       0.00000000       5.82121212       0.00000000       0.00000000      -0.04424844
2
Properties=species:S:1:pos:R:3:forces:R:3 energy=-3.980961186246401 pbc="F F F"
Ac       0.00000000       0.00000000       0.00000000       0.00000000       0.00000000       0.03805199
Ac       0.00000000       0.00000000       5.88080808       0.00000000       0.00000000      -0.03805199
2
Properties=species:S:1:pos:R:3:forces:R:3 energy=-3.9787815854927713 pbc="F F F"
Ac       0.00000000       0.00000000       0.00000000       0.00000000       0.00000000       0.03550280
Ac       0.00000000       0.00000000       5.94040404       0.00000000       0.00000000      -0.03550280
2
Properties=species:S:1:pos:R:3:forces:R:3 energy=-3.976685878449637 pbc="F F F"
Ac       0.00000000       0.00000000       0.00000000       0.00000000       0.00000000       0.03497398
Ac       0.00000000       0.00000000       6.00000000       0.00000000       0.00000000      -0.03497398
