2
Properties=species:S:1:pos:R:3:forces:R:3 energy=25898.745720355477 pbc="F F F"
Al       0.00000000       0.00000000       0.00000000       0.00000000       0.00000000 -159475.73437500
Al       0.00000000       0.00000000       0.10000000       0.00000000       0.00000000  159475.73437500
2
Properties=species:S:1:pos:R:3:forces:R:3 energy=15871.584587542977 pbc="F F F"
Al       0.00000000       0.00000000       0.00000000       0.00000000       0.00000000 -165617.81250000
Al       0.00000000       0.00000000       0.15959596       0.00000000       0.00000000  165617.81250000
2
Properties=species:S:1:pos:R:3:forces:R:3 energy=7246.603630511726 pbc="F F F"
Al       0.00000000       0.00000000       0.00000000       0.00000000       0.00000000 -117488.57812500
Al       0.00000000       0.00000000       0.21919192       0.00000000       0.00000000  117488.57812500
2
Properties=species:S:1:pos:R:3:forces:R:3 energy=2189.5657887148514 pbc="F F F"
Al       0.00000000       0.00000000       0.00000000       0.00000000       0.00000000  -53414.44140625
Al       0.00000000       0.00000000       0.27878788       0.00000000       0.00000000   53414.44140625
2
Properties=species:S:1:pos:R:3:forces:R:3 energy=381.32439467821814 pbc="F F F"
Al       0.00000000       0.00000000       0.00000000       0.00000000       0.00000000  -13002.23925781
Al       0.00000000       0.00000000       0.33838384       0.00000000       0.00000000   13002.23925781
2
Properties=species:S:1:pos:R:3:forces:R:3 energy=80.84974716258114 pbc="F F F"
Al       0.00000000       0.00000000       0.00000000       0.00000000       0.00000000   -2659.39233398
Al       0.00000000       0.00000000       0.39797980       0.00000000       0.00000000    2659.39233398
2
Properties=species:S:1:pos:R:3:forces:R:3 energy=-39.38840818973781 pbc="F F F"
Al       0.00000000       0.00000000       0.00000000       0.00000000       0.00000000    -399.52633667
Al       0.00000000       0.00000000       0.45757576       0.00000000       0.00000000     399.52633667
2
Properties=species:S:1:pos:R:3:forces:R:3 energy=-45.70523401842316 pbc="F F F"
Al       0.00000000       0.00000000       0.00000000       0.00000000       0.00000000     206.83102417
Al       0.00000000       0.00000000       0.51717172       0.00000000       0.00000000    -206.83102417
2
Properties=species:S:1:pos:R:3:forces:R:3 energy=-28.965915113746114 pbc="F F F"
Al       0.00000000       0.00000000       0.00000000       0.00000000       0.00000000     169.84631348
Al       0.00000000       0.00000000       0.57676768       0.00000000       0.00000000    -169.84631348
2
Properties=species:S:1:pos:R:3:forces:R:3 energy=-22.06920176821116 pbc="F F F"
Al       0.00000000       0.00000000       0.00000000       0.00000000       0.00000000      86.68048859
Al       0.00000000       0.00000000       0.63636364       0.00000000       0.00000000     -86.68048859
2
Properties=species:S:1:pos:R:3:forces:R:3 energy=-17.835761216985773 pbc="F F F"
Al       0.00000000       0.00000000       0.00000000       0.00000000       0.00000000      65.44056702
Al       0.00000000       0.00000000       0.69595960       0.00000000       0.00000000     -65.44056702
2
Properties=species:S:1:pos:R:3:forces:R:3 energy=-14.701783092552285 pbc="F F F"
Al       0.00000000       0.00000000       0.00000000       0.00000000       0.00000000      42.68070602
Al       0.00000000       0.00000000       0.75555556       0.00000000       0.00000000     -42.68070602
2
Properties=species:S:1:pos:R:3:forces:R:3 energy=-12.518029736816652 pbc="F F F"
Al       0.00000000       0.00000000       0.00000000       0.00000000       0.00000000      29.97655106
Al       0.00000000       0.00000000       0.81515152       0.00000000       0.00000000     -29.97655106
2
Properties=species:S:1:pos:R:3:forces:R:3 energy=-10.469736116256612 pbc="F F F"
Al       0.00000000       0.00000000       0.00000000       0.00000000       0.00000000      38.95186996
Al       0.00000000       0.00000000       0.87474747       0.00000000       0.00000000     -38.95186996
2
Properties=species:S:1:pos:R:3:forces:R:3 energy=-7.680718683031639 pbc="F F F"
Al       0.00000000       0.00000000       0.00000000       0.00000000       0.00000000      79.44696808
Al       0.00000000       0.00000000       0.93434343       0.00000000       0.00000000     -79.44696808
2
Properties=species:S:1:pos:R:3:forces:R:3 energy=1.25338625841686 pbc="F F F"
Al       0.00000000       0.00000000       0.00000000       0.00000000       0.00000000     201.75450134
Al       0.00000000       0.00000000       0.99393939       0.00000000       0.00000000    -201.75450134
2
Properties=species:S:1:pos:R:3:forces:R:3 energy=12.71104255457638 pbc="F F F"
Al       0.00000000       0.00000000       0.00000000       0.00000000       0.00000000     171.26574707
Al       0.00000000       0.00000000       1.05353535       0.00000000       0.00000000    -171.26574707
2
Properties=species:S:1:pos:R:3:forces:R:3 energy=21.611243277690473 pbc="F F F"
Al       0.00000000       0.00000000       0.00000000       0.00000000       0.00000000     120.36009216
Al       0.00000000       0.00000000       1.11313131       0.00000000       0.00000000    -120.36009216
2
Properties=species:S:1:pos:R:3:forces:R:3 energy=26.166955467081696 pbc="F F F"
Al       0.00000000       0.00000000       0.00000000       0.00000000       0.00000000      20.94220924
Al       0.00000000       0.00000000       1.17272727       0.00000000       0.00000000     -20.94220924
2
Properties=species:S:1:pos:R:3:forces:R:3 energy=25.437016205420548 pbc="F F F"
Al       0.00000000       0.00000000       0.00000000       0.00000000       0.00000000     -38.48006821
Al       0.00000000       0.00000000       1.23232323       0.00000000       0.00000000      38.48006821
2
Properties=species:S:1:pos:R:3:forces:R:3 energy=22.470890830541496 pbc="F F F"
Al       0.00000000       0.00000000       0.00000000       0.00000000       0.00000000     -56.97573090
Al       0.00000000       0.00000000       1.29191919       0.00000000       0.00000000      56.97573090
2
Properties=species:S:1:pos:R:3:forces:R:3 energy=19.01906017803369 pbc="F F F"
Al       0.00000000       0.00000000       0.00000000       0.00000000       0.00000000     -58.10157394
Al       0.00000000       0.00000000       1.35151515       0.00000000       0.00000000      58.10157394
2
Properties=species:S:1:pos:R:3:forces:R:3 energy=15.552312490665784 pbc="F F F"
Al       0.00000000       0.00000000       0.00000000       0.00000000       0.00000000     -57.20694351
Al       0.00000000       0.00000000       1.41111111       0.00000000       0.00000000      57.20694351
2
Properties=species:S:1:pos:R:3:forces:R:3 energy=12.28408796326979 pbc="F F F"
Al       0.00000000       0.00000000       0.00000000       0.00000000       0.00000000     -52.01747894
Al       0.00000000       0.00000000       1.47070707       0.00000000       0.00000000      52.01747894
2
Properties=species:S:1:pos:R:3:forces:R:3 energy=9.415246923455173 pbc="F F F"
Al       0.00000000       0.00000000       0.00000000       0.00000000       0.00000000     -44.01330185
Al       0.00000000       0.00000000       1.53030303       0.00000000       0.00000000      44.01330185
2
Properties=species:S:1:pos:R:3:forces:R:3 energy=7.061294919181296 pbc="F F F"
Al       0.00000000       0.00000000       0.00000000       0.00000000       0.00000000     -35.20027161
Al       0.00000000       0.00000000       1.58989899       0.00000000       0.00000000      35.20027161
2
Properties=species:S:1:pos:R:3:forces:R:3 energy=5.173116214950193 pbc="F F F"
Al       0.00000000       0.00000000       0.00000000       0.00000000       0.00000000     -28.11172295
Al       0.00000000       0.00000000       1.64949495       0.00000000       0.00000000      28.11172295
2
Properties=species:S:1:pos:R:3:forces:R:3 energy=3.6689756369594084 pbc="F F F"
Al       0.00000000       0.00000000       0.00000000       0.00000000       0.00000000     -22.69742203
Al       0.00000000       0.00000000       1.70909091       0.00000000       0.00000000      22.69742203
2
Properties=species:S:1:pos:R:3:forces:R:3 energy=2.4543693039979866 pbc="F F F"
Al       0.00000000       0.00000000       0.00000000       0.00000000       0.00000000     -18.35582924
Al       0.00000000       0.00000000       1.76868687       0.00000000       0.00000000      18.35582924
2
Properties=species:S:1:pos:R:3:forces:R:3 energy=1.4399794854796761 pbc="F F F"
Al       0.00000000       0.00000000       0.00000000       0.00000000       0.00000000     -15.69398689
Al       0.00000000       0.00000000       1.82828283       0.00000000       0.00000000      15.69398689
2
Properties=species:S:1:pos:R:3:forces:R:3 energy=0.5901965209596334 pbc="F F F"
Al       0.00000000       0.00000000       0.00000000       0.00000000       0.00000000     -13.03135204
Al       0.00000000       0.00000000       1.88787879       0.00000000       0.00000000      13.03135204
2
Properties=species:S:1:pos:R:3:forces:R:3 energy=-0.1269557571971225 pbc="F F F"
Al       0.00000000       0.00000000       0.00000000       0.00000000       0.00000000     -11.03573227
Al       0.00000000       0.00000000       1.94747475       0.00000000       0.00000000      11.03573227
2
Properties=species:S:1:pos:R:3:forces:R:3 energy=-0.7305036237682461 pbc="F F F"
Al       0.00000000       0.00000000       0.00000000       0.00000000       0.00000000      -9.27721024
Al       0.00000000       0.00000000       2.00707071       0.00000000       0.00000000       9.27721024
2
Properties=species:S:1:pos:R:3:forces:R:3 energy=-1.2338658942707421 pbc="F F F"
Al       0.00000000       0.00000000       0.00000000       0.00000000       0.00000000      -7.60179710
Al       0.00000000       0.00000000       2.06666667       0.00000000       0.00000000       7.60179710
2
Properties=species:S:1:pos:R:3:forces:R:3 energy=-1.6357216980981664 pbc="F F F"
Al       0.00000000       0.00000000       0.00000000       0.00000000       0.00000000      -5.88183928
Al       0.00000000       0.00000000       2.12626263       0.00000000       0.00000000       5.88183928
2
Properties=species:S:1:pos:R:3:forces:R:3 energy=-1.9404998527625632 pbc="F F F"
Al       0.00000000       0.00000000       0.00000000       0.00000000       0.00000000      -4.42903280
Al       0.00000000       0.00000000       2.18585859       0.00000000       0.00000000       4.42903280
2
Properties=species:S:1:pos:R:3:forces:R:3 energy=-2.170113520583083 pbc="F F F"
Al       0.00000000       0.00000000       0.00000000       0.00000000       0.00000000      -3.31410742
Al       0.00000000       0.00000000       2.24545455       0.00000000       0.00000000       3.31410742
2
Properties=species:S:1:pos:R:3:forces:R:3 energy=-2.3409231805429482 pbc="F F F"
Al       0.00000000       0.00000000       0.00000000       0.00000000       0.00000000      -2.45134187
Al       0.00000000       0.00000000       2.30505051       0.00000000       0.00000000       2.45134187
2
Properties=species:S:1:pos:R:3:forces:R:3 energy=-2.463741008522898 pbc="F F F"
Al       0.00000000       0.00000000       0.00000000       0.00000000       0.00000000      -1.68155348
Al       0.00000000       0.00000000       2.36464646       0.00000000       0.00000000       1.68155348
2
Properties=species:S:1:pos:R:3:forces:R:3 energy=-2.544374509675406 pbc="F F F"
Al       0.00000000       0.00000000       0.00000000       0.00000000       0.00000000      -1.05311489
Al       0.00000000       0.00000000       2.42424242       0.00000000       0.00000000       1.05311489
2
Properties=species:S:1:pos:R:3:forces:R:3 energy=-2.592176571466822 pbc="F F F"
Al       0.00000000       0.00000000       0.00000000       0.00000000       0.00000000      -0.57299531
Al       0.00000000       0.00000000       2.48383838       0.00000000       0.00000000       0.57299531
2
Properties=species:S:1:pos:R:3:forces:R:3 energy=-2.6146266181833027 pbc="F F F"
Al       0.00000000       0.00000000       0.00000000       0.00000000       0.00000000      -0.19103430
Al       0.00000000       0.00000000       2.54343434       0.00000000       0.00000000       0.19103430
2
Properties=species:S:1:pos:R:3:forces:R:3 energy=-2.616105253475824 pbc="F F F"
Al       0.00000000       0.00000000       0.00000000       0.00000000       0.00000000       0.13056901
Al       0.00000000       0.00000000       2.60303030       0.00000000       0.00000000      -0.13056901
2
Properties=species:S:1:pos:R:3:forces:R:3 energy=-2.6004399889301486 pbc="F F F"
Al       0.00000000       0.00000000       0.00000000       0.00000000       0.00000000       0.38391522
Al       0.00000000       0.00000000       2.66262626       0.00000000       0.00000000      -0.38391522
2
Properties=species:S:1:pos:R:3:forces:R:3 energy=-2.5715297360826583 pbc="F F F"
Al       0.00000000       0.00000000       0.00000000       0.00000000       0.00000000       0.57772982
Al       0.00000000       0.00000000       2.72222222       0.00000000       0.00000000      -0.57772982
2
Properties=species:S:1:pos:R:3:forces:R:3 energy=-2.532537117424791 pbc="F F F"
Al       0.00000000       0.00000000       0.00000000       0.00000000       0.00000000       0.72255337
Al       0.00000000       0.00000000       2.78181818       0.00000000       0.00000000      -0.72255337
2
Properties=species:S:1:pos:R:3:forces:R:3 energy=-2.486459775814177 pbc="F F F"
Al       0.00000000       0.00000000       0.00000000       0.00000000       0.00000000       0.81487125
Al       0.00000000       0.00000000       2.84141414       0.00000000       0.00000000      -0.81487125
2
Properties=species:S:1:pos:R:3:forces:R:3 energy=-2.436379967655468 pbc="F F F"
Al       0.00000000       0.00000000       0.00000000       0.00000000       0.00000000       0.85889143
Al       0.00000000       0.00000000       2.90101010       0.00000000       0.00000000      -0.85889143
2
Properties=species:S:1:pos:R:3:forces:R:3 energy=-2.38468811059373 pbc="F F F"
Al       0.00000000       0.00000000       0.00000000       0.00000000       0.00000000       0.87274718
Al       0.00000000       0.00000000       2.96060606       0.00000000       0.00000000      -0.87274718
2
Properties=species:S:1:pos:R:3:forces:R:3 energy=-2.3325152179977513 pbc="F F F"
Al       0.00000000       0.00000000       0.00000000       0.00000000       0.00000000       0.87804031
Al       0.00000000       0.00000000       3.02020202       0.00000000       0.00000000      -0.87804031
2
Properties=species:S:1:pos:R:3:forces:R:3 energy=-2.2800334036422716 pbc="F F F"
Al       0.00000000       0.00000000       0.00000000       0.00000000       0.00000000       0.88266575
Al       0.00000000       0.00000000       3.07979798       0.00000000       0.00000000      -0.88266575
2
Properties=species:S:1:pos:R:3:forces:R:3 energy=-2.2274991727818025 pbc="F F F"
Al       0.00000000       0.00000000       0.00000000       0.00000000       0.00000000       0.87789649
Al       0.00000000       0.00000000       3.13939394       0.00000000       0.00000000      -0.87789649
2
Properties=species:S:1:pos:R:3:forces:R:3 energy=-2.1757145628795334 pbc="F F F"
Al       0.00000000       0.00000000       0.00000000       0.00000000       0.00000000       0.85742891
Al       0.00000000       0.00000000       3.19898990       0.00000000       0.00000000      -0.85742891
2
Properties=species:S:1:pos:R:3:forces:R:3 energy=-2.125544424784686 pbc="F F F"
Al       0.00000000       0.00000000       0.00000000       0.00000000       0.00000000       0.82475930
Al       0.00000000       0.00000000       3.25858586       0.00000000       0.00000000      -0.82475930
2
Properties=species:S:1:pos:R:3:forces:R:3 energy=-2.0775196925320962 pbc="F F F"
Al       0.00000000       0.00000000       0.00000000       0.00000000       0.00000000       0.78644633
Al       0.00000000       0.00000000       3.31818182       0.00000000       0.00000000      -0.78644633
2
Properties=species:S:1:pos:R:3:forces:R:3 energy=-2.0318237903702374 pbc="F F F"
Al       0.00000000       0.00000000       0.00000000       0.00000000       0.00000000       0.74707574
Al       0.00000000       0.00000000       3.37777778       0.00000000       0.00000000      -0.74707574
2
Properties=species:S:1:pos:R:3:forces:R:3 energy=-1.9884597167950218 pbc="F F F"
Al       0.00000000       0.00000000       0.00000000       0.00000000       0.00000000       0.70834863
Al       0.00000000       0.00000000       3.43737374       0.00000000       0.00000000      -0.70834863
2
Properties=species:S:1:pos:R:3:forces:R:3 energy=-1.9473736768238055 pbc="F F F"
Al       0.00000000       0.00000000       0.00000000       0.00000000       0.00000000       0.67065430
Al       0.00000000       0.00000000       3.49696970       0.00000000       0.00000000      -0.67065430
2
Properties=species:S:1:pos:R:3:forces:R:3 energy=-1.9085014793210542 pbc="F F F"
Al       0.00000000       0.00000000       0.00000000       0.00000000       0.00000000       0.63404441
Al       0.00000000       0.00000000       3.55656566       0.00000000       0.00000000      -0.63404441
2
Properties=species:S:1:pos:R:3:forces:R:3 energy=-1.8717864894606686 pbc="F F F"
Al       0.00000000       0.00000000       0.00000000       0.00000000       0.00000000       0.59811300
Al       0.00000000       0.00000000       3.61616162       0.00000000       0.00000000      -0.59811300
2
Properties=species:S:1:pos:R:3:forces:R:3 energy=-1.837210171007287 pbc="F F F"
Al       0.00000000       0.00000000       0.00000000       0.00000000       0.00000000       0.56233943
Al       0.00000000       0.00000000       3.67575758       0.00000000       0.00000000      -0.56233943
2
Properties=species:S:1:pos:R:3:forces:R:3 energy=-1.8047579121123019 pbc="F F F"
Al       0.00000000       0.00000000       0.00000000       0.00000000       0.00000000       0.52678442
Al       0.00000000       0.00000000       3.73535354       0.00000000       0.00000000      -0.52678442
2
Properties=species:S:1:pos:R:3:forces:R:3 energy=-1.7744022296515058 pbc="F F F"
Al       0.00000000       0.00000000       0.00000000       0.00000000       0.00000000       0.49216419
Al       0.00000000       0.00000000       3.79494949       0.00000000       0.00000000      -0.49216419
2
Properties=species:S:1:pos:R:3:forces:R:3 energy=-1.7460604430957738 pbc="F F F"
Al       0.00000000       0.00000000       0.00000000       0.00000000       0.00000000       0.45932063
Al       0.00000000       0.00000000       3.85454545       0.00000000       0.00000000      -0.45932063
2
Properties=species:S:1:pos:R:3:forces:R:3 energy=-1.7196099981605542 pbc="F F F"
Al       0.00000000       0.00000000       0.00000000       0.00000000       0.00000000       0.42870405
Al       0.00000000       0.00000000       3.91414141       0.00000000       0.00000000      -0.42870405
2
Properties=species:S:1:pos:R:3:forces:R:3 energy=-1.6949191839567885 pbc="F F F"
Al       0.00000000       0.00000000       0.00000000       0.00000000       0.00000000       0.40025076
Al       0.00000000       0.00000000       3.97373737       0.00000000       0.00000000      -0.40025076
2
Properties=species:S:1:pos:R:3:forces:R:3 energy=-1.6718667973559962 pbc="F F F"
Al       0.00000000       0.00000000       0.00000000       0.00000000       0.00000000       0.37361762
Al       0.00000000       0.00000000       4.03333333       0.00000000       0.00000000      -0.37361762
2
Properties=species:S:1:pos:R:3:forces:R:3 energy=-1.6503579229660044 pbc="F F F"
Al       0.00000000       0.00000000       0.00000000       0.00000000       0.00000000       0.34849441
Al       0.00000000       0.00000000       4.09292929       0.00000000       0.00000000      -0.34849441
2
Properties=species:S:1:pos:R:3:forces:R:3 energy=-1.6303010449473547 pbc="F F F"
Al       0.00000000       0.00000000       0.00000000       0.00000000       0.00000000       0.32477233
Al       0.00000000       0.00000000       4.15252525       0.00000000       0.00000000      -0.32477233
2
Properties=species:S:1:pos:R:3:forces:R:3 energy=-1.6116184614030522 pbc="F F F"
Al       0.00000000       0.00000000       0.00000000       0.00000000       0.00000000       0.30250397
Al       0.00000000       0.00000000       4.21212121       0.00000000       0.00000000      -0.30250397
2
Properties=species:S:1:pos:R:3:forces:R:3 energy=-1.5942166000975146 pbc="F F F"
Al       0.00000000       0.00000000       0.00000000       0.00000000       0.00000000       0.28176764
Al       0.00000000       0.00000000       4.27171717       0.00000000       0.00000000      -0.28176764
2
Properties=species:S:1:pos:R:3:forces:R:3 energy=-1.5780021485565767 pbc="F F F"
Al       0.00000000       0.00000000       0.00000000       0.00000000       0.00000000       0.26258069
Al       0.00000000       0.00000000       4.33131313       0.00000000       0.00000000      -0.26258069
2
Properties=species:S:1:pos:R:3:forces:R:3 energy=-1.5628885840678843 pbc="F F F"
Al       0.00000000       0.00000000       0.00000000       0.00000000       0.00000000       0.24486771
Al       0.00000000       0.00000000       4.39090909       0.00000000       0.00000000      -0.24486771
2
Properties=species:S:1:pos:R:3:forces:R:3 energy=-1.5487902932438904 pbc="F F F"
Al       0.00000000       0.00000000       0.00000000       0.00000000       0.00000000       0.22848414
Al       0.00000000       0.00000000       4.45050505       0.00000000       0.00000000      -0.22848414
2
Properties=species:S:1:pos:R:3:forces:R:3 energy=-1.5356329452299147 pbc="F F F"
Al       0.00000000       0.00000000       0.00000000       0.00000000       0.00000000       0.21324085
Al       0.00000000       0.00000000       4.51010101       0.00000000       0.00000000      -0.21324085
2
Properties=species:S:1:pos:R:3:forces:R:3 energy=-1.523355177305227 pbc="F F F"
Al       0.00000000       0.00000000       0.00000000       0.00000000       0.00000000       0.19892997
Al       0.00000000       0.00000000       4.56969697       0.00000000       0.00000000      -0.19892997
2
Properties=species:S:1:pos:R:3:forces:R:3 energy=-1.5119076665513078 pbc="F F F"
Al       0.00000000       0.00000000       0.00000000       0.00000000       0.00000000       0.18536405
Al       0.00000000       0.00000000       4.62929293       0.00000000       0.00000000      -0.18536405
2
Properties=species:S:1:pos:R:3:forces:R:3 energy=-1.5012491029104984 pbc="F F F"
Al       0.00000000       0.00000000       0.00000000       0.00000000       0.00000000       0.17242080
Al       0.00000000       0.00000000       4.68888889       0.00000000       0.00000000      -0.17242080
2
Properties=species:S:1:pos:R:3:forces:R:3 energy=-1.491343283813542 pbc="F F F"
Al       0.00000000       0.00000000       0.00000000       0.00000000       0.00000000       0.16008593
Al       0.00000000       0.00000000       4.74848485       0.00000000       0.00000000      -0.16008593
2
Properties=species:S:1:pos:R:3:forces:R:3 energy=-1.4821542285985818 pbc="F F F"
Al       0.00000000       0.00000000       0.00000000       0.00000000       0.00000000       0.14846940
Al       0.00000000       0.00000000       4.80808081       0.00000000       0.00000000      -0.14846940
2
Properties=species:S:1:pos:R:3:forces:R:3 energy=-1.473629094736842 pbc="F F F"
Al       0.00000000       0.00000000       0.00000000       0.00000000       0.00000000       0.13777715
Al       0.00000000       0.00000000       4.86767677       0.00000000       0.00000000      -0.13777715
2
Properties=species:S:1:pos:R:3:forces:R:3 energy=-1.465709549064515 pbc="F F F"
Al       0.00000000       0.00000000       0.00000000       0.00000000       0.00000000       0.12823972
Al       0.00000000       0.00000000       4.92727273       0.00000000       0.00000000      -0.12823972
2
Properties=species:S:1:pos:R:3:forces:R:3 energy=-1.458317421486327 pbc="F F F"
Al       0.00000000       0.00000000       0.00000000       0.00000000       0.00000000       0.12000891
Al       0.00000000       0.00000000       4.98686869       0.00000000       0.00000000      -0.12000891
2
Properties=species:S:1:pos:R:3:forces:R:3 energy=-1.4513805745593238 pbc="F F F"
Al       0.00000000       0.00000000       0.00000000       0.00000000       0.00000000       0.11306692
Al       0.00000000       0.00000000       5.04646465       0.00000000       0.00000000      -0.11306692
2
Properties=species:S:1:pos:R:3:forces:R:3 energy=-1.4448214023802735 pbc="F F F"
Al       0.00000000       0.00000000       0.00000000       0.00000000       0.00000000       0.10717417
Al       0.00000000       0.00000000       5.10606061       0.00000000       0.00000000      -0.10717417
2
Properties=species:S:1:pos:R:3:forces:R:3 energy=-1.4385913022452337 pbc="F F F"
Al       0.00000000       0.00000000       0.00000000       0.00000000       0.00000000       0.10187326
Al       0.00000000       0.00000000       5.16565657       0.00000000       0.00000000      -0.10187326
2
Properties=species:S:1:pos:R:3:forces:R:3 energy=-1.4326783198831916 pbc="F F F"
Al       0.00000000       0.00000000       0.00000000       0.00000000       0.00000000       0.09658416
Al       0.00000000       0.00000000       5.22525253       0.00000000       0.00000000      -0.09658416
2
Properties=species:S:1:pos:R:3:forces:R:3 energy=-1.4270909559996188 pbc="F F F"
Al       0.00000000       0.00000000       0.00000000       0.00000000       0.00000000       0.09071411
Al       0.00000000       0.00000000       5.28484848       0.00000000       0.00000000      -0.09071411
2
Properties=species:S:1:pos:R:3:forces:R:3 energy=-1.4218869348970713 pbc="F F F"
Al       0.00000000       0.00000000       0.00000000       0.00000000       0.00000000       0.08380479
Al       0.00000000       0.00000000       5.34444444       0.00000000       0.00000000      -0.08380479
2
Properties=species:S:1:pos:R:3:forces:R:3 energy=-1.417128343768452 pbc="F F F"
Al       0.00000000       0.00000000       0.00000000       0.00000000       0.00000000       0.07563616
Al       0.00000000       0.00000000       5.40404040       0.00000000       0.00000000      -0.07563616
2
Properties=species:S:1:pos:R:3:forces:R:3 energy=-1.4128941666794765 pbc="F F F"
Al       0.00000000       0.00000000       0.00000000       0.00000000       0.00000000       0.06628527
Al       0.00000000       0.00000000       5.46363636       0.00000000       0.00000000      -0.06628527
2
Properties=species:S:1:pos:R:3:forces:R:3 energy=-1.409245945957638 pbc="F F F"
Al       0.00000000       0.00000000       0.00000000       0.00000000       0.00000000       0.05611533
Al       0.00000000       0.00000000       5.52323232       0.00000000       0.00000000      -0.05611533
2
Properties=species:S:1:pos:R:3:forces:R:3 energy=-1.4062097922609045 pbc="F F F"
Al       0.00000000       0.00000000       0.00000000       0.00000000       0.00000000       0.04571284
Al       0.00000000       0.00000000       5.58282828       0.00000000       0.00000000      -0.04571284
2
Properties=species:S:1:pos:R:3:forces:R:3 energy=-1.403786817974399 pbc="F F F"
Al       0.00000000       0.00000000       0.00000000       0.00000000       0.00000000       0.03577705
Al       0.00000000       0.00000000       5.64242424       0.00000000       0.00000000      -0.03577705
2
Properties=species:S:1:pos:R:3:forces:R:3 energy=-1.4019227495129845 pbc="F F F"
Al       0.00000000       0.00000000       0.00000000       0.00000000       0.00000000       0.02698416
Al       0.00000000       0.00000000       5.70202020       0.00000000       0.00000000      -0.02698416
2
Properties=species:S:1:pos:R:3:forces:R:3 energy=-1.4005365343829324 pbc="F F F"
Al       0.00000000       0.00000000       0.00000000       0.00000000       0.00000000       0.01987771
Al       0.00000000       0.00000000       5.76161616       0.00000000       0.00000000      -0.01987771
2
Properties=species:S:1:pos:R:3:forces:R:3 energy=-1.39951464843838 pbc="F F F"
Al       0.00000000       0.00000000       0.00000000       0.00000000       0.00000000       0.01473521
Al       0.00000000       0.00000000       5.82121212       0.00000000       0.00000000      -0.01473521
2
Properties=species:S:1:pos:R:3:forces:R:3 energy=-1.398740701758782 pbc="F F F"
Al       0.00000000       0.00000000       0.00000000       0.00000000       0.00000000       0.01153403
Al       0.00000000       0.00000000       5.88080808       0.00000000       0.00000000      -0.01153403
2
Properties=species:S:1:pos:R:3:forces:R:3 energy=-1.3981087869215185 pbc="F F F"
Al       0.00000000       0.00000000       0.00000000       0.00000000       0.00000000       0.00989670
Al       0.00000000       0.00000000       5.94040404       0.00000000       0.00000000      -0.00989670
2
Properties=species:S:1:pos:R:3:forces:R:3 energy=-1.3975435584316038 pbc="F F F"
Al       0.00000000       0.00000000       0.00000000       0.00000000       0.00000000       0.00916749
Al       0.00000000       0.00000000       6.00000000       0.00000000       0.00000000      -0.00916749
