2
Properties=species:S:1:pos:R:3:forces:R:3 energy=-0.15523852228803298 pbc="F F F"
Ar       0.00000000       0.00000000       0.00000000       0.00000000       0.00000000      -0.00034683
Ar       0.00000000       0.00000000       0.10000000       0.00000000       0.00000000       0.00034683
2
Properties=species:S:1:pos:R:3:forces:R:3 energy=-0.15525610565824172 pbc="F F F"
Ar       0.00000000       0.00000000       0.00000000       0.00000000       0.00000000      -0.00018647
Ar       0.00000000       0.00000000       0.15959596       0.00000000       0.00000000       0.00018647
2
Properties=species:S:1:pos:R:3:forces:R:3 energy=-0.15525241017026564 pbc="F F F"
Ar       0.00000000       0.00000000       0.00000000       0.00000000       0.00000000       0.00040013
Ar       0.00000000       0.00000000       0.21919192       0.00000000       0.00000000      -0.00040013
2
Properties=species:S:1:pos:R:3:forces:R:3 energy=-0.1551964398249105 pbc="F F F"
Ar       0.00000000       0.00000000       0.00000000       0.00000000       0.00000000       0.00158071
Ar       0.00000000       0.00000000       0.27878788       0.00000000       0.00000000      -0.00158071
2
Properties=species:S:1:pos:R:3:forces:R:3 energy=-0.1550522796558769 pbc="F F F"
Ar       0.00000000       0.00000000       0.00000000       0.00000000       0.00000000       0.00330846
Ar       0.00000000       0.00000000       0.33838384       0.00000000       0.00000000      -0.00330846
2
Properties=species:S:1:pos:R:3:forces:R:3 energy=-0.15482749628522924 pbc="F F F"
Ar       0.00000000       0.00000000       0.00000000       0.00000000       0.00000000       0.00463479
Ar       0.00000000       0.00000000       0.39797980       0.00000000       0.00000000      -0.00463479
2
Properties=species:S:1:pos:R:3:forces:R:3 energy=-0.15445946711407557 pbc="F F F"
Ar       0.00000000       0.00000000       0.00000000       0.00000000       0.00000000       0.00742632
Ar       0.00000000       0.00000000       0.45757576       0.00000000       0.00000000      -0.00742632
2
Properties=species:S:1:pos:R:3:forces:R:3 energy=-0.15392812409207146 pbc="F F F"
Ar       0.00000000       0.00000000       0.00000000       0.00000000       0.00000000       0.01113458
Ar       0.00000000       0.00000000       0.51717172       0.00000000       0.00000000      -0.01113458
2
Properties=species:S:1:pos:R:3:forces:R:3 energy=-0.15329832628421097 pbc="F F F"
Ar       0.00000000       0.00000000       0.00000000       0.00000000       0.00000000       0.00843384
Ar       0.00000000       0.00000000       0.57676768       0.00000000       0.00000000      -0.00843384
2
Properties=species:S:1:pos:R:3:forces:R:3 energy=-0.15284864362541922 pbc="F F F"
Ar       0.00000000       0.00000000       0.00000000       0.00000000       0.00000000       0.00828591
Ar       0.00000000       0.00000000       0.63636364       0.00000000       0.00000000      -0.00828591
2
Properties=species:S:1:pos:R:3:forces:R:3 energy=-0.152567237966076 pbc="F F F"
Ar       0.00000000       0.00000000       0.00000000       0.00000000       0.00000000       0.00204641
Ar       0.00000000       0.00000000       0.69595960       0.00000000       0.00000000      -0.00204641
2
Properties=species:S:1:pos:R:3:forces:R:3 energy=-0.15266518619237673 pbc="F F F"
Ar       0.00000000       0.00000000       0.00000000       0.00000000       0.00000000      -0.00442447
Ar       0.00000000       0.00000000       0.75555556       0.00000000       0.00000000       0.00442447
2
Properties=species:S:1:pos:R:3:forces:R:3 energy=-0.15287119559573914 pbc="F F F"
Ar       0.00000000       0.00000000       0.00000000       0.00000000       0.00000000      -0.00545961
Ar       0.00000000       0.00000000       0.81515152       0.00000000       0.00000000       0.00545961
2
Properties=species:S:1:pos:R:3:forces:R:3 energy=-0.1533140208363804 pbc="F F F"
Ar       0.00000000       0.00000000       0.00000000       0.00000000       0.00000000      -0.00890897
Ar       0.00000000       0.00000000       0.87474747       0.00000000       0.00000000       0.00890897
2
Properties=species:S:1:pos:R:3:forces:R:3 energy=-0.1537604892518863 pbc="F F F"
Ar       0.00000000       0.00000000       0.00000000       0.00000000       0.00000000      -0.00607336
Ar       0.00000000       0.00000000       0.93434343       0.00000000       0.00000000       0.00607336
2
Properties=species:S:1:pos:R:3:forces:R:3 energy=-0.15406250876653807 pbc="F F F"
Ar       0.00000000       0.00000000       0.00000000       0.00000000       0.00000000      -0.00452247
Ar       0.00000000       0.00000000       0.99393939       0.00000000       0.00000000       0.00452247
2
Properties=species:S:1:pos:R:3:forces:R:3 energy=-0.1542485172555089 pbc="F F F"
Ar       0.00000000       0.00000000       0.00000000       0.00000000       0.00000000      -0.00237067
Ar       0.00000000       0.00000000       1.05353535       0.00000000       0.00000000       0.00237067
2
Properties=species:S:1:pos:R:3:forces:R:3 energy=-0.15437418370509087 pbc="F F F"
Ar       0.00000000       0.00000000       0.00000000       0.00000000       0.00000000      -0.00076114
Ar       0.00000000       0.00000000       1.11313131       0.00000000       0.00000000       0.00076114
2
Properties=species:S:1:pos:R:3:forces:R:3 energy=-0.15433910363115483 pbc="F F F"
Ar       0.00000000       0.00000000       0.00000000       0.00000000       0.00000000       0.00144602
Ar       0.00000000       0.00000000       1.17272727       0.00000000       0.00000000      -0.00144602
2
Properties=species:S:1:pos:R:3:forces:R:3 energy=-0.15424962968293182 pbc="F F F"
Ar       0.00000000       0.00000000       0.00000000       0.00000000       0.00000000       0.00224348
Ar       0.00000000       0.00000000       1.23232323       0.00000000       0.00000000      -0.00224348
2
Properties=species:S:1:pos:R:3:forces:R:3 energy=-0.15399316893438314 pbc="F F F"
Ar       0.00000000       0.00000000       0.00000000       0.00000000       0.00000000       0.00635784
Ar       0.00000000       0.00000000       1.29191919       0.00000000       0.00000000      -0.00635784
2
Properties=species:S:1:pos:R:3:forces:R:3 energy=-0.1535660100143759 pbc="F F F"
Ar       0.00000000       0.00000000       0.00000000       0.00000000       0.00000000       0.00800725
Ar       0.00000000       0.00000000       1.35151515       0.00000000       0.00000000      -0.00800725
2
Properties=species:S:1:pos:R:3:forces:R:3 energy=-0.15306815780144362 pbc="F F F"
Ar       0.00000000       0.00000000       0.00000000       0.00000000       0.00000000       0.00829288
Ar       0.00000000       0.00000000       1.41111111       0.00000000       0.00000000      -0.00829288
2
Properties=species:S:1:pos:R:3:forces:R:3 energy=-0.15259403405239083 pbc="F F F"
Ar       0.00000000       0.00000000       0.00000000       0.00000000       0.00000000       0.00788732
Ar       0.00000000       0.00000000       1.47070707       0.00000000       0.00000000      -0.00788732
2
Properties=species:S:1:pos:R:3:forces:R:3 energy=-0.15211337652664234 pbc="F F F"
Ar       0.00000000       0.00000000       0.00000000       0.00000000       0.00000000       0.00781290
Ar       0.00000000       0.00000000       1.53030303       0.00000000       0.00000000      -0.00781290
2
Properties=species:S:1:pos:R:3:forces:R:3 energy=-0.1517020183753591 pbc="F F F"
Ar       0.00000000       0.00000000       0.00000000       0.00000000       0.00000000       0.00604408
Ar       0.00000000       0.00000000       1.58989899       0.00000000       0.00000000      -0.00604408
2
Properties=species:S:1:pos:R:3:forces:R:3 energy=-0.1513706395372533 pbc="F F F"
Ar       0.00000000       0.00000000       0.00000000       0.00000000       0.00000000       0.00511883
Ar       0.00000000       0.00000000       1.64949495       0.00000000       0.00000000      -0.00511883
2
Properties=species:S:1:pos:R:3:forces:R:3 energy=-0.15108440617705388 pbc="F F F"
Ar       0.00000000       0.00000000       0.00000000       0.00000000       0.00000000       0.00452716
Ar       0.00000000       0.00000000       1.70909091       0.00000000       0.00000000      -0.00452716
2
Properties=species:S:1:pos:R:3:forces:R:3 energy=-0.15083286346714989 pbc="F F F"
Ar       0.00000000       0.00000000       0.00000000       0.00000000       0.00000000       0.00391764
Ar       0.00000000       0.00000000       1.76868687       0.00000000       0.00000000      -0.00391764
2
Properties=species:S:1:pos:R:3:forces:R:3 energy=-0.15061485878028452 pbc="F F F"
Ar       0.00000000       0.00000000       0.00000000       0.00000000       0.00000000       0.00326480
Ar       0.00000000       0.00000000       1.82828283       0.00000000       0.00000000      -0.00326480
2
Properties=species:S:1:pos:R:3:forces:R:3 energy=-0.15044766565995094 pbc="F F F"
Ar       0.00000000       0.00000000       0.00000000       0.00000000       0.00000000       0.00256014
Ar       0.00000000       0.00000000       1.88787879       0.00000000       0.00000000      -0.00256014
2
Properties=species:S:1:pos:R:3:forces:R:3 energy=-0.1502974144045499 pbc="F F F"
Ar       0.00000000       0.00000000       0.00000000       0.00000000       0.00000000       0.00244541
Ar       0.00000000       0.00000000       1.94747475       0.00000000       0.00000000      -0.00244541
2
Properties=species:S:1:pos:R:3:forces:R:3 energy=-0.15015337500190262 pbc="F F F"
Ar       0.00000000       0.00000000       0.00000000       0.00000000       0.00000000       0.00240159
Ar       0.00000000       0.00000000       2.00707071       0.00000000       0.00000000      -0.00240159
2
Properties=species:S:1:pos:R:3:forces:R:3 energy=-0.1500214947770258 pbc="F F F"
Ar       0.00000000       0.00000000       0.00000000       0.00000000       0.00000000       0.00194838
Ar       0.00000000       0.00000000       2.06666667       0.00000000       0.00000000      -0.00194838
2
Properties=species:S:1:pos:R:3:forces:R:3 energy=-0.149917874851351 pbc="F F F"
Ar       0.00000000       0.00000000       0.00000000       0.00000000       0.00000000       0.00157543
Ar       0.00000000       0.00000000       2.12626263       0.00000000       0.00000000      -0.00157543
2
Properties=species:S:1:pos:R:3:forces:R:3 energy=-0.14982917711147087 pbc="F F F"
Ar       0.00000000       0.00000000       0.00000000       0.00000000       0.00000000       0.00144520
Ar       0.00000000       0.00000000       2.18585859       0.00000000       0.00000000      -0.00144520
2
Properties=species:S:1:pos:R:3:forces:R:3 energy=-0.1497434946633998 pbc="F F F"
Ar       0.00000000       0.00000000       0.00000000       0.00000000       0.00000000       0.00143304
Ar       0.00000000       0.00000000       2.24545455       0.00000000       0.00000000      -0.00143304
2
Properties=species:S:1:pos:R:3:forces:R:3 energy=-0.14965625456830564 pbc="F F F"
Ar       0.00000000       0.00000000       0.00000000       0.00000000       0.00000000       0.00151542
Ar       0.00000000       0.00000000       2.30505051       0.00000000       0.00000000      -0.00151542
2
Properties=species:S:1:pos:R:3:forces:R:3 energy=-0.14956086308110209 pbc="F F F"
Ar       0.00000000       0.00000000       0.00000000       0.00000000       0.00000000       0.00170199
Ar       0.00000000       0.00000000       2.36464646       0.00000000       0.00000000      -0.00170199
2
Properties=species:S:1:pos:R:3:forces:R:3 energy=-0.1494517254804644 pbc="F F F"
Ar       0.00000000       0.00000000       0.00000000       0.00000000       0.00000000       0.00197539
Ar       0.00000000       0.00000000       2.42424242       0.00000000       0.00000000      -0.00197539
2
Properties=species:S:1:pos:R:3:forces:R:3 energy=-0.14932239069727393 pbc="F F F"
Ar       0.00000000       0.00000000       0.00000000       0.00000000       0.00000000       0.00239779
Ar       0.00000000       0.00000000       2.48383838       0.00000000       0.00000000      -0.00239779
2
Properties=species:S:1:pos:R:3:forces:R:3 energy=-0.1491635611866505 pbc="F F F"
Ar       0.00000000       0.00000000       0.00000000       0.00000000       0.00000000       0.00293314
Ar       0.00000000       0.00000000       2.54343434       0.00000000       0.00000000      -0.00293314
2
Properties=species:S:1:pos:R:3:forces:R:3 energy=-0.14897294540935024 pbc="F F F"
Ar       0.00000000       0.00000000       0.00000000       0.00000000       0.00000000       0.00346658
Ar       0.00000000       0.00000000       2.60303030       0.00000000       0.00000000      -0.00346658
2
Properties=species:S:1:pos:R:3:forces:R:3 energy=-0.14874955666869893 pbc="F F F"
Ar       0.00000000       0.00000000       0.00000000       0.00000000       0.00000000       0.00403847
Ar       0.00000000       0.00000000       2.66262626       0.00000000       0.00000000      -0.00403847
2
Properties=species:S:1:pos:R:3:forces:R:3 energy=-0.1484912524811107 pbc="F F F"
Ar       0.00000000       0.00000000       0.00000000       0.00000000       0.00000000       0.00462834
Ar       0.00000000       0.00000000       2.72222222       0.00000000       0.00000000      -0.00462834
2
Properties=species:S:1:pos:R:3:forces:R:3 energy=-0.1481981735145159 pbc="F F F"
Ar       0.00000000       0.00000000       0.00000000       0.00000000       0.00000000       0.00520502
Ar       0.00000000       0.00000000       2.78181818       0.00000000       0.00000000      -0.00520502
2
Properties=species:S:1:pos:R:3:forces:R:3 energy=-0.1478711285112841 pbc="F F F"
Ar       0.00000000       0.00000000       0.00000000       0.00000000       0.00000000       0.00577162
Ar       0.00000000       0.00000000       2.84141414       0.00000000       0.00000000      -0.00577162
2
Properties=species:S:1:pos:R:3:forces:R:3 energy=-0.1475102899056593 pbc="F F F"
Ar       0.00000000       0.00000000       0.00000000       0.00000000       0.00000000       0.00633502
Ar       0.00000000       0.00000000       2.90101010       0.00000000       0.00000000      -0.00633502
2
Properties=species:S:1:pos:R:3:forces:R:3 energy=-0.147116163629175 pbc="F F F"
Ar       0.00000000       0.00000000       0.00000000       0.00000000       0.00000000       0.00688823
Ar       0.00000000       0.00000000       2.96060606       0.00000000       0.00000000      -0.00688823
2
Properties=species:S:1:pos:R:3:forces:R:3 energy=-0.14668974345797567 pbc="F F F"
Ar       0.00000000       0.00000000       0.00000000       0.00000000       0.00000000       0.00741666
Ar       0.00000000       0.00000000       3.02020202       0.00000000       0.00000000      -0.00741666
2
Properties=species:S:1:pos:R:3:forces:R:3 energy=-0.1462328641809398 pbc="F F F"
Ar       0.00000000       0.00000000       0.00000000       0.00000000       0.00000000       0.00791211
Ar       0.00000000       0.00000000       3.07979798       0.00000000       0.00000000      -0.00791211
2
Properties=species:S:1:pos:R:3:forces:R:3 energy=-0.14574743178301944 pbc="F F F"
Ar       0.00000000       0.00000000       0.00000000       0.00000000       0.00000000       0.00837063
Ar       0.00000000       0.00000000       3.13939394       0.00000000       0.00000000      -0.00837063
2
Properties=species:S:1:pos:R:3:forces:R:3 energy=-0.14523602107559874 pbc="F F F"
Ar       0.00000000       0.00000000       0.00000000       0.00000000       0.00000000       0.00878378
Ar       0.00000000       0.00000000       3.19898990       0.00000000       0.00000000      -0.00878378
2
Properties=species:S:1:pos:R:3:forces:R:3 energy=-0.14470161193533787 pbc="F F F"
Ar       0.00000000       0.00000000       0.00000000       0.00000000       0.00000000       0.00914198
Ar       0.00000000       0.00000000       3.25858586       0.00000000       0.00000000      -0.00914198
2
Properties=species:S:1:pos:R:3:forces:R:3 energy=-0.14414762039841833 pbc="F F F"
Ar       0.00000000       0.00000000       0.00000000       0.00000000       0.00000000       0.00943899
Ar       0.00000000       0.00000000       3.31818182       0.00000000       0.00000000      -0.00943899
2
Properties=species:S:1:pos:R:3:forces:R:3 energy=-0.1435778210489004 pbc="F F F"
Ar       0.00000000       0.00000000       0.00000000       0.00000000       0.00000000       0.00967078
Ar       0.00000000       0.00000000       3.37777778       0.00000000       0.00000000      -0.00967078
2
Properties=species:S:1:pos:R:3:forces:R:3 energy=-0.14299624277258022 pbc="F F F"
Ar       0.00000000       0.00000000       0.00000000       0.00000000       0.00000000       0.00983468
Ar       0.00000000       0.00000000       3.43737374       0.00000000       0.00000000      -0.00983468
2
Properties=species:S:1:pos:R:3:forces:R:3 energy=-0.14240700590613725 pbc="F F F"
Ar       0.00000000       0.00000000       0.00000000       0.00000000       0.00000000       0.00992925
Ar       0.00000000       0.00000000       3.49696970       0.00000000       0.00000000      -0.00992925
2
Properties=species:S:1:pos:R:3:forces:R:3 energy=-0.1418140956138797 pbc="F F F"
Ar       0.00000000       0.00000000       0.00000000       0.00000000       0.00000000       0.00995471
Ar       0.00000000       0.00000000       3.55656566       0.00000000       0.00000000      -0.00995471
2
Properties=species:S:1:pos:R:3:forces:R:3 energy=-0.14122175498559517 pbc="F F F"
Ar       0.00000000       0.00000000       0.00000000       0.00000000       0.00000000       0.00991396
Ar       0.00000000       0.00000000       3.61616162       0.00000000       0.00000000      -0.00991396
2
Properties=species:S:1:pos:R:3:forces:R:3 energy=-0.14063373643467253 pbc="F F F"
Ar       0.00000000       0.00000000       0.00000000       0.00000000       0.00000000       0.00981235
Ar       0.00000000       0.00000000       3.67575758       0.00000000       0.00000000      -0.00981235
2
Properties=species:S:1:pos:R:3:forces:R:3 energy=-0.14005329131867122 pbc="F F F"
Ar       0.00000000       0.00000000       0.00000000       0.00000000       0.00000000       0.00965665
Ar       0.00000000       0.00000000       3.73535354       0.00000000       0.00000000      -0.00965665
2
Properties=species:S:1:pos:R:3:forces:R:3 energy=-0.13948364669247101 pbc="F F F"
Ar       0.00000000       0.00000000       0.00000000       0.00000000       0.00000000       0.00945406
Ar       0.00000000       0.00000000       3.79494949       0.00000000       0.00000000      -0.00945406
2
Properties=species:S:1:pos:R:3:forces:R:3 energy=-0.1389272815490033 pbc="F F F"
Ar       0.00000000       0.00000000       0.00000000       0.00000000       0.00000000       0.00921191
Ar       0.00000000       0.00000000       3.85454545       0.00000000       0.00000000      -0.00921191
2
Properties=species:S:1:pos:R:3:forces:R:3 energy=-0.13838634109192186 pbc="F F F"
Ar       0.00000000       0.00000000       0.00000000       0.00000000       0.00000000       0.00893758
Ar       0.00000000       0.00000000       3.91414141       0.00000000       0.00000000      -0.00893758
2
Properties=species:S:1:pos:R:3:forces:R:3 energy=-0.13786244208255777 pbc="F F F"
Ar       0.00000000       0.00000000       0.00000000       0.00000000       0.00000000       0.00863816
Ar       0.00000000       0.00000000       3.97373737       0.00000000       0.00000000      -0.00863816
2
Properties=species:S:1:pos:R:3:forces:R:3 energy=-0.13735702571605496 pbc="F F F"
Ar       0.00000000       0.00000000       0.00000000       0.00000000       0.00000000       0.00831990
Ar       0.00000000       0.00000000       4.03333333       0.00000000       0.00000000      -0.00831990
2
Properties=species:S:1:pos:R:3:forces:R:3 energy=-0.13687106672574595 pbc="F F F"
Ar       0.00000000       0.00000000       0.00000000       0.00000000       0.00000000       0.00798775
Ar       0.00000000       0.00000000       4.09292929       0.00000000       0.00000000      -0.00798775
2
Properties=species:S:1:pos:R:3:forces:R:3 energy=-0.13640516387406276 pbc="F F F"
Ar       0.00000000       0.00000000       0.00000000       0.00000000       0.00000000       0.00764540
Ar       0.00000000       0.00000000       4.15252525       0.00000000       0.00000000      -0.00764540
2
Properties=species:S:1:pos:R:3:forces:R:3 energy=-0.13595997094028242 pbc="F F F"
Ar       0.00000000       0.00000000       0.00000000       0.00000000       0.00000000       0.00729588
Ar       0.00000000       0.00000000       4.21212121       0.00000000       0.00000000      -0.00729588
2
Properties=species:S:1:pos:R:3:forces:R:3 energy=-0.1355357472058348 pbc="F F F"
Ar       0.00000000       0.00000000       0.00000000       0.00000000       0.00000000       0.00694211
Ar       0.00000000       0.00000000       4.27171717       0.00000000       0.00000000      -0.00694211
2
Properties=species:S:1:pos:R:3:forces:R:3 energy=-0.13513251694933473 pbc="F F F"
Ar       0.00000000       0.00000000       0.00000000       0.00000000       0.00000000       0.00658721
Ar       0.00000000       0.00000000       4.33131313       0.00000000       0.00000000      -0.00658721
2
Properties=species:S:1:pos:R:3:forces:R:3 energy=-0.1347504925147723 pbc="F F F"
Ar       0.00000000       0.00000000       0.00000000       0.00000000       0.00000000       0.00623438
Ar       0.00000000       0.00000000       4.39090909       0.00000000       0.00000000      -0.00623438
2
Properties=species:S:1:pos:R:3:forces:R:3 energy=-0.13438934974030736 pbc="F F F"
Ar       0.00000000       0.00000000       0.00000000       0.00000000       0.00000000       0.00588668
Ar       0.00000000       0.00000000       4.45050505       0.00000000       0.00000000      -0.00588668
2
Properties=species:S:1:pos:R:3:forces:R:3 energy=-0.13404866686557038 pbc="F F F"
Ar       0.00000000       0.00000000       0.00000000       0.00000000       0.00000000       0.00554690
Ar       0.00000000       0.00000000       4.51010101       0.00000000       0.00000000      -0.00554690
2
Properties=species:S:1:pos:R:3:forces:R:3 energy=-0.1337280313616515 pbc="F F F"
Ar       0.00000000       0.00000000       0.00000000       0.00000000       0.00000000       0.00521734
Ar       0.00000000       0.00000000       4.56969697       0.00000000       0.00000000      -0.00521734
2
Properties=species:S:1:pos:R:3:forces:R:3 energy=-0.13342656961758498 pbc="F F F"
Ar       0.00000000       0.00000000       0.00000000       0.00000000       0.00000000       0.00489978
Ar       0.00000000       0.00000000       4.62929293       0.00000000       0.00000000      -0.00489978
2
Properties=species:S:1:pos:R:3:forces:R:3 energy=-0.13314372813637537 pbc="F F F"
Ar       0.00000000       0.00000000       0.00000000       0.00000000       0.00000000       0.00459547
Ar       0.00000000       0.00000000       4.68888889       0.00000000       0.00000000      -0.00459547
2
Properties=species:S:1:pos:R:3:forces:R:3 energy=-0.132878599856926 pbc="F F F"
Ar       0.00000000       0.00000000       0.00000000       0.00000000       0.00000000       0.00430509
Ar       0.00000000       0.00000000       4.74848485       0.00000000       0.00000000      -0.00430509
2
Properties=species:S:1:pos:R:3:forces:R:3 energy=-0.13263028257386325 pbc="F F F"
Ar       0.00000000       0.00000000       0.00000000       0.00000000       0.00000000       0.00402884
Ar       0.00000000       0.00000000       4.80808081       0.00000000       0.00000000      -0.00402884
2
Properties=species:S:1:pos:R:3:forces:R:3 energy=-0.13239806952681404 pbc="F F F"
Ar       0.00000000       0.00000000       0.00000000       0.00000000       0.00000000       0.00376655
Ar       0.00000000       0.00000000       4.86767677       0.00000000       0.00000000      -0.00376655
2
Properties=species:S:1:pos:R:3:forces:R:3 energy=-0.13218109058460398 pbc="F F F"
Ar       0.00000000       0.00000000       0.00000000       0.00000000       0.00000000       0.00351776
Ar       0.00000000       0.00000000       4.92727273       0.00000000       0.00000000      -0.00351776
2
Properties=species:S:1:pos:R:3:forces:R:3 energy=-0.13197856214719164 pbc="F F F"
Ar       0.00000000       0.00000000       0.00000000       0.00000000       0.00000000       0.00328193
Ar       0.00000000       0.00000000       4.98686869       0.00000000       0.00000000      -0.00328193
2
Properties=species:S:1:pos:R:3:forces:R:3 energy=-0.13178968100364555 pbc="F F F"
Ar       0.00000000       0.00000000       0.00000000       0.00000000       0.00000000       0.00305856
Ar       0.00000000       0.00000000       5.04646465       0.00000000       0.00000000      -0.00305856
2
Properties=species:S:1:pos:R:3:forces:R:3 energy=-0.13161376760207824 pbc="F F F"
Ar       0.00000000       0.00000000       0.00000000       0.00000000       0.00000000       0.00284731
Ar       0.00000000       0.00000000       5.10606061       0.00000000       0.00000000      -0.00284731
2
Properties=species:S:1:pos:R:3:forces:R:3 energy=-0.13145004584604472 pbc="F F F"
Ar       0.00000000       0.00000000       0.00000000       0.00000000       0.00000000       0.00264801
Ar       0.00000000       0.00000000       5.16565657       0.00000000       0.00000000      -0.00264801
2
Properties=species:S:1:pos:R:3:forces:R:3 energy=-0.13129787438552165 pbc="F F F"
Ar       0.00000000       0.00000000       0.00000000       0.00000000       0.00000000       0.00246068
Ar       0.00000000       0.00000000       5.22525253       0.00000000       0.00000000      -0.00246068
2
Properties=species:S:1:pos:R:3:forces:R:3 energy=-0.13115650780235044 pbc="F F F"
Ar       0.00000000       0.00000000       0.00000000       0.00000000       0.00000000       0.00228542
Ar       0.00000000       0.00000000       5.28484848       0.00000000       0.00000000      -0.00228542
2
Properties=species:S:1:pos:R:3:forces:R:3 energy=-0.13102522373908224 pbc="F F F"
Ar       0.00000000       0.00000000       0.00000000       0.00000000       0.00000000       0.00212229
Ar       0.00000000       0.00000000       5.34444444       0.00000000       0.00000000      -0.00212229
2
Properties=species:S:1:pos:R:3:forces:R:3 energy=-0.13090331339551142 pbc="F F F"
Ar       0.00000000       0.00000000       0.00000000       0.00000000       0.00000000       0.00197120
Ar       0.00000000       0.00000000       5.40404040       0.00000000       0.00000000      -0.00197120
2
Properties=species:S:1:pos:R:3:forces:R:3 energy=-0.130790026873753 pbc="F F F"
Ar       0.00000000       0.00000000       0.00000000       0.00000000       0.00000000       0.00183184
Ar       0.00000000       0.00000000       5.46363636       0.00000000       0.00000000      -0.00183184
2
Properties=species:S:1:pos:R:3:forces:R:3 energy=-0.13068474753742695 pbc="F F F"
Ar       0.00000000       0.00000000       0.00000000       0.00000000       0.00000000       0.00170362
Ar       0.00000000       0.00000000       5.52323232       0.00000000       0.00000000      -0.00170362
2
Properties=species:S:1:pos:R:3:forces:R:3 energy=-0.13058678359339052 pbc="F F F"
Ar       0.00000000       0.00000000       0.00000000       0.00000000       0.00000000       0.00158576
Ar       0.00000000       0.00000000       5.58282828       0.00000000       0.00000000      -0.00158576
2
Properties=species:S:1:pos:R:3:forces:R:3 energy=-0.13049559908573402 pbc="F F F"
Ar       0.00000000       0.00000000       0.00000000       0.00000000       0.00000000       0.00147730
Ar       0.00000000       0.00000000       5.64242424       0.00000000       0.00000000      -0.00147730
2
Properties=species:S:1:pos:R:3:forces:R:3 energy=-0.1304105204263014 pbc="F F F"
Ar       0.00000000       0.00000000       0.00000000       0.00000000       0.00000000       0.00137725
Ar       0.00000000       0.00000000       5.70202020       0.00000000       0.00000000      -0.00137725
2
Properties=species:S:1:pos:R:3:forces:R:3 energy=-0.13033123798545426 pbc="F F F"
Ar       0.00000000       0.00000000       0.00000000       0.00000000       0.00000000       0.00128462
Ar       0.00000000       0.00000000       5.76161616       0.00000000       0.00000000      -0.00128462
2
Properties=species:S:1:pos:R:3:forces:R:3 energy=-0.13025729479985246 pbc="F F F"
Ar       0.00000000       0.00000000       0.00000000       0.00000000       0.00000000       0.00119859
Ar       0.00000000       0.00000000       5.82121212       0.00000000       0.00000000      -0.00119859
2
Properties=species:S:1:pos:R:3:forces:R:3 energy=-0.1301882675642661 pbc="F F F"
Ar       0.00000000       0.00000000       0.00000000       0.00000000       0.00000000       0.00111849
Ar       0.00000000       0.00000000       5.88080808       0.00000000       0.00000000      -0.00111849
2
Properties=species:S:1:pos:R:3:forces:R:3 energy=-0.13012385029686527 pbc="F F F"
Ar       0.00000000       0.00000000       0.00000000       0.00000000       0.00000000       0.00104384
Ar       0.00000000       0.00000000       5.94040404       0.00000000       0.00000000      -0.00104384
2
Properties=species:S:1:pos:R:3:forces:R:3 energy=-0.13006373562490242 pbc="F F F"
Ar       0.00000000       0.00000000       0.00000000       0.00000000       0.00000000       0.00097438
Ar       0.00000000       0.00000000       6.00000000       0.00000000       0.00000000      -0.00097438
