2
Properties=species:S:1:pos:R:3:forces:R:3 energy=2952844.459159613 pbc="F F F"
Au       0.00000000       0.00000000       0.00000000       0.00000000       0.00000000 -13962669.00000000
Au       0.00000000       0.00000000       0.10000000       0.00000000       0.00000000 13962669.00000000
2
Properties=species:S:1:pos:R:3:forces:R:3 energy=2047704.5841596131 pbc="F F F"
Au       0.00000000       0.00000000       0.00000000       0.00000000       0.00000000 -15468056.00000000
Au       0.00000000       0.00000000       0.15959596       0.00000000       0.00000000 15468056.00000000
2
Properties=species:S:1:pos:R:3:forces:R:3 energy=1201249.2091596131 pbc="F F F"
Au       0.00000000       0.00000000       0.00000000       0.00000000       0.00000000 -12410146.00000000
Au       0.00000000       0.00000000       0.21919192       0.00000000       0.00000000 12410146.00000000
2
Properties=species:S:1:pos:R:3:forces:R:3 energy=599031.0216596132 pbc="F F F"
Au       0.00000000       0.00000000       0.00000000       0.00000000       0.00000000 -7782675.00000000
Au       0.00000000       0.00000000       0.27878788       0.00000000       0.00000000 7782675.00000000
2
Properties=species:S:1:pos:R:3:forces:R:3 energy=257464.5997846164 pbc="F F F"
Au       0.00000000       0.00000000       0.00000000       0.00000000       0.00000000 -3922955.25000000
Au       0.00000000       0.00000000       0.33838384       0.00000000       0.00000000 3922955.25000000
2
Properties=species:S:1:pos:R:3:forces:R:3 energy=97433.37322212274 pbc="F F F"
Au       0.00000000       0.00000000       0.00000000       0.00000000       0.00000000 -1678310.75000000
Au       0.00000000       0.00000000       0.39797980       0.00000000       0.00000000 1678310.75000000
2
Properties=species:S:1:pos:R:3:forces:R:3 energy=33630.95525338224 pbc="F F F"
Au       0.00000000       0.00000000       0.00000000       0.00000000       0.00000000 -626628.12500000
Au       0.00000000       0.00000000       0.45757576       0.00000000       0.00000000  626628.12500000
2
Properties=species:S:1:pos:R:3:forces:R:3 energy=10861.021659657585 pbc="F F F"
Au       0.00000000       0.00000000       0.00000000       0.00000000       0.00000000 -203220.21875000
Au       0.00000000       0.00000000       0.51717172       0.00000000       0.00000000  203220.21875000
2
Properties=species:S:1:pos:R:3:forces:R:3 energy=3378.6859663362234 pbc="F F F"
Au       0.00000000       0.00000000       0.00000000       0.00000000       0.00000000  -68609.10156250
Au       0.00000000       0.00000000       0.57676768       0.00000000       0.00000000   68609.10156250
2
Properties=species:S:1:pos:R:3:forces:R:3 energy=1088.4291304652475 pbc="F F F"
Au       0.00000000       0.00000000       0.00000000       0.00000000       0.00000000  -19367.92382812
Au       0.00000000       0.00000000       0.63636364       0.00000000       0.00000000   19367.92382812
2
Properties=species:S:1:pos:R:3:forces:R:3 energy=435.0153122072428 pbc="F F F"
Au       0.00000000       0.00000000       0.00000000       0.00000000       0.00000000   -5447.51513672
Au       0.00000000       0.00000000       0.69595960       0.00000000       0.00000000    5447.51513672
2
Properties=species:S:1:pos:R:3:forces:R:3 energy=217.69469469302047 pbc="F F F"
Au       0.00000000       0.00000000       0.00000000       0.00000000       0.00000000   -2104.11450195
Au       0.00000000       0.00000000       0.75555556       0.00000000       0.00000000    2104.11450195
2
Properties=species:S:1:pos:R:3:forces:R:3 energy=133.25783580291557 pbc="F F F"
Au       0.00000000       0.00000000       0.00000000       0.00000000       0.00000000    -789.84118652
Au       0.00000000       0.00000000       0.81515152       0.00000000       0.00000000     789.84118652
2
Properties=species:S:1:pos:R:3:forces:R:3 energy=94.31337051416898 pbc="F F F"
Au       0.00000000       0.00000000       0.00000000       0.00000000       0.00000000    -486.17663574
Au       0.00000000       0.00000000       0.87474747       0.00000000       0.00000000     486.17663574
2
Properties=species:S:1:pos:R:3:forces:R:3 energy=72.19826632988844 pbc="F F F"
Au       0.00000000       0.00000000       0.00000000       0.00000000       0.00000000    -294.28985596
Au       0.00000000       0.00000000       0.93434343       0.00000000       0.00000000     294.28985596
2
Properties=species:S:1:pos:R:3:forces:R:3 energy=58.297964124007315 pbc="F F F"
Au       0.00000000       0.00000000       0.00000000       0.00000000       0.00000000    -170.82202148
Au       0.00000000       0.00000000       0.99393939       0.00000000       0.00000000     170.82202148
2
Properties=species:S:1:pos:R:3:forces:R:3 energy=50.99840831683365 pbc="F F F"
Au       0.00000000       0.00000000       0.00000000       0.00000000       0.00000000     -82.80085754
Au       0.00000000       0.00000000       1.05353535       0.00000000       0.00000000      82.80085754
2
Properties=species:S:1:pos:R:3:forces:R:3 energy=46.74485426076837 pbc="F F F"
Au       0.00000000       0.00000000       0.00000000       0.00000000       0.00000000     -73.84701538
Au       0.00000000       0.00000000       1.11313131       0.00000000       0.00000000      73.84701538
2
Properties=species:S:1:pos:R:3:forces:R:3 energy=41.26800728673403 pbc="F F F"
Au       0.00000000       0.00000000       0.00000000       0.00000000       0.00000000    -106.68012238
Au       0.00000000       0.00000000       1.17272727       0.00000000       0.00000000     106.68012238
2
Properties=species:S:1:pos:R:3:forces:R:3 energy=34.902958133307976 pbc="F F F"
Au       0.00000000       0.00000000       0.00000000       0.00000000       0.00000000    -108.96128082
Au       0.00000000       0.00000000       1.23232323       0.00000000       0.00000000     108.96128082
2
Properties=species:S:1:pos:R:3:forces:R:3 energy=28.37117298532057 pbc="F F F"
Au       0.00000000       0.00000000       0.00000000       0.00000000       0.00000000    -109.11348724
Au       0.00000000       0.00000000       1.29191919       0.00000000       0.00000000     109.11348724
2
Properties=species:S:1:pos:R:3:forces:R:3 energy=22.03028936854456 pbc="F F F"
Au       0.00000000       0.00000000       0.00000000       0.00000000       0.00000000    -101.44676208
Au       0.00000000       0.00000000       1.35151515       0.00000000       0.00000000     101.44676208
2
Properties=species:S:1:pos:R:3:forces:R:3 energy=16.347850096022135 pbc="F F F"
Au       0.00000000       0.00000000       0.00000000       0.00000000       0.00000000     -86.96114349
Au       0.00000000       0.00000000       1.41111111       0.00000000       0.00000000      86.96114349
2
Properties=species:S:1:pos:R:3:forces:R:3 energy=11.725481938401037 pbc="F F F"
Au       0.00000000       0.00000000       0.00000000       0.00000000       0.00000000     -68.68738556
Au       0.00000000       0.00000000       1.47070707       0.00000000       0.00000000      68.68738556
2
Properties=species:S:1:pos:R:3:forces:R:3 energy=8.066834428561041 pbc="F F F"
Au       0.00000000       0.00000000       0.00000000       0.00000000       0.00000000     -54.15108871
Au       0.00000000       0.00000000       1.53030303       0.00000000       0.00000000      54.15108871
2
Properties=species:S:1:pos:R:3:forces:R:3 energy=5.324250781645893 pbc="F F F"
Au       0.00000000       0.00000000       0.00000000       0.00000000       0.00000000     -38.29284668
Au       0.00000000       0.00000000       1.58989899       0.00000000       0.00000000      38.29284668
2
Properties=species:S:1:pos:R:3:forces:R:3 energy=3.3879938896871713 pbc="F F F"
Au       0.00000000       0.00000000       0.00000000       0.00000000       0.00000000     -27.46651649
Au       0.00000000       0.00000000       1.64949495       0.00000000       0.00000000      27.46651649
2
Properties=species:S:1:pos:R:3:forces:R:3 energy=1.9712355420498073 pbc="F F F"
Au       0.00000000       0.00000000       0.00000000       0.00000000       0.00000000     -20.43252373
Au       0.00000000       0.00000000       1.70909091       0.00000000       0.00000000      20.43252373
2
Properties=species:S:1:pos:R:3:forces:R:3 energy=0.9050555670586415 pbc="F F F"
Au       0.00000000       0.00000000       0.00000000       0.00000000       0.00000000     -15.98022652
Au       0.00000000       0.00000000       1.76868687       0.00000000       0.00000000      15.98022652
2
Properties=species:S:1:pos:R:3:forces:R:3 energy=0.013260646549596598 pbc="F F F"
Au       0.00000000       0.00000000       0.00000000       0.00000000       0.00000000     -14.06379986
Au       0.00000000       0.00000000       1.82828283       0.00000000       0.00000000      14.06379986
2
Properties=species:S:1:pos:R:3:forces:R:3 energy=-0.7603349751704591 pbc="F F F"
Au       0.00000000       0.00000000       0.00000000       0.00000000       0.00000000     -11.87175465
Au       0.00000000       0.00000000       1.88787879       0.00000000       0.00000000      11.87175465
2
Properties=species:S:1:pos:R:3:forces:R:3 energy=-1.4053150431342822 pbc="F F F"
Au       0.00000000       0.00000000       0.00000000       0.00000000       0.00000000      -9.82102394
Au       0.00000000       0.00000000       1.94747475       0.00000000       0.00000000       9.82102394
2
Properties=species:S:1:pos:R:3:forces:R:3 energy=-1.9345192581299795 pbc="F F F"
Au       0.00000000       0.00000000       0.00000000       0.00000000       0.00000000      -7.97513485
Au       0.00000000       0.00000000       2.00707071       0.00000000       0.00000000       7.97513485
2
Properties=species:S:1:pos:R:3:forces:R:3 energy=-2.3630832855267623 pbc="F F F"
Au       0.00000000       0.00000000       0.00000000       0.00000000       0.00000000      -6.45719814
Au       0.00000000       0.00000000       2.06666667       0.00000000       0.00000000       6.45719814
2
Properties=species:S:1:pos:R:3:forces:R:3 energy=-2.7069254777073435 pbc="F F F"
Au       0.00000000       0.00000000       0.00000000       0.00000000       0.00000000      -5.11094046
Au       0.00000000       0.00000000       2.12626263       0.00000000       0.00000000       5.11094046
2
Properties=species:S:1:pos:R:3:forces:R:3 energy=-2.9784105011121293 pbc="F F F"
Au       0.00000000       0.00000000       0.00000000       0.00000000       0.00000000      -4.05348587
Au       0.00000000       0.00000000       2.18585859       0.00000000       0.00000000       4.05348587
2
Properties=species:S:1:pos:R:3:forces:R:3 energy=-3.194266791099177 pbc="F F F"
Au       0.00000000       0.00000000       0.00000000       0.00000000       0.00000000      -3.21652317
Au       0.00000000       0.00000000       2.24545455       0.00000000       0.00000000       3.21652317
2
Properties=species:S:1:pos:R:3:forces:R:3 energy=-3.3649914813787904 pbc="F F F"
Au       0.00000000       0.00000000       0.00000000       0.00000000       0.00000000      -2.53169823
Au       0.00000000       0.00000000       2.30505051       0.00000000       0.00000000       2.53169823
2
Properties=species:S:1:pos:R:3:forces:R:3 energy=-3.4967780340646653 pbc="F F F"
Au       0.00000000       0.00000000       0.00000000       0.00000000       0.00000000      -1.89606464
Au       0.00000000       0.00000000       2.36464646       0.00000000       0.00000000       1.89606464
2
Properties=species:S:1:pos:R:3:forces:R:3 energy=-3.5927497183677573 pbc="F F F"
Au       0.00000000       0.00000000       0.00000000       0.00000000       0.00000000      -1.34340560
Au       0.00000000       0.00000000       2.42424242       0.00000000       0.00000000       1.34340560
2
Properties=species:S:1:pos:R:3:forces:R:3 energy=-3.6588686431850004 pbc="F F F"
Au       0.00000000       0.00000000       0.00000000       0.00000000       0.00000000      -0.89032960
Au       0.00000000       0.00000000       2.48383838       0.00000000       0.00000000       0.89032960
2
Properties=species:S:1:pos:R:3:forces:R:3 energy=-3.700461393187916 pbc="F F F"
Au       0.00000000       0.00000000       0.00000000       0.00000000       0.00000000      -0.51753104
Au       0.00000000       0.00000000       2.54343434       0.00000000       0.00000000       0.51753104
2
Properties=species:S:1:pos:R:3:forces:R:3 energy=-3.721968239323962 pbc="F F F"
Au       0.00000000       0.00000000       0.00000000       0.00000000       0.00000000      -0.21615569
Au       0.00000000       0.00000000       2.60303030       0.00000000       0.00000000       0.21615569
2
Properties=species:S:1:pos:R:3:forces:R:3 energy=-3.7275848275911763 pbc="F F F"
Au       0.00000000       0.00000000       0.00000000       0.00000000       0.00000000       0.01715072
Au       0.00000000       0.00000000       2.66262626       0.00000000       0.00000000      -0.01715072
2
Properties=species:S:1:pos:R:3:forces:R:3 energy=-3.721065231468932 pbc="F F F"
Au       0.00000000       0.00000000       0.00000000       0.00000000       0.00000000       0.19287974
Au       0.00000000       0.00000000       2.72222222       0.00000000       0.00000000      -0.19287974
2
Properties=species:S:1:pos:R:3:forces:R:3 energy=-3.705552189410587 pbc="F F F"
Au       0.00000000       0.00000000       0.00000000       0.00000000       0.00000000       0.32046190
Au       0.00000000       0.00000000       2.78181818       0.00000000       0.00000000      -0.32046190
2
Properties=species:S:1:pos:R:3:forces:R:3 energy=-3.683661886183583 pbc="F F F"
Au       0.00000000       0.00000000       0.00000000       0.00000000       0.00000000       0.40785787
Au       0.00000000       0.00000000       2.84141414       0.00000000       0.00000000      -0.40785787
2
Properties=species:S:1:pos:R:3:forces:R:3 energy=-3.6576760593670428 pbc="F F F"
Au       0.00000000       0.00000000       0.00000000       0.00000000       0.00000000       0.45814714
Au       0.00000000       0.00000000       2.90101010       0.00000000       0.00000000      -0.45814714
2
Properties=species:S:1:pos:R:3:forces:R:3 energy=-3.6297112135027008 pbc="F F F"
Au       0.00000000       0.00000000       0.00000000       0.00000000       0.00000000       0.47576380
Au       0.00000000       0.00000000       2.96060606       0.00000000       0.00000000      -0.47576380
2
Properties=species:S:1:pos:R:3:forces:R:3 energy=-3.6013698694160197 pbc="F F F"
Au       0.00000000       0.00000000       0.00000000       0.00000000       0.00000000       0.47313946
Au       0.00000000       0.00000000       3.02020202       0.00000000       0.00000000      -0.47313946
2
Properties=species:S:1:pos:R:3:forces:R:3 energy=-3.5735018750607384 pbc="F F F"
Au       0.00000000       0.00000000       0.00000000       0.00000000       0.00000000       0.46082866
Au       0.00000000       0.00000000       3.07979798       0.00000000       0.00000000      -0.46082866
2
Properties=species:S:1:pos:R:3:forces:R:3 energy=-3.546591534330408 pbc="F F F"
Au       0.00000000       0.00000000       0.00000000       0.00000000       0.00000000       0.44103983
Au       0.00000000       0.00000000       3.13939394       0.00000000       0.00000000      -0.44103983
2
Properties=species:S:1:pos:R:3:forces:R:3 energy=-3.5210548911949267 pbc="F F F"
Au       0.00000000       0.00000000       0.00000000       0.00000000       0.00000000       0.41522411
Au       0.00000000       0.00000000       3.19898990       0.00000000       0.00000000      -0.41522411
2
Properties=species:S:1:pos:R:3:forces:R:3 energy=-3.4971493687031985 pbc="F F F"
Au       0.00000000       0.00000000       0.00000000       0.00000000       0.00000000       0.38686788
Au       0.00000000       0.00000000       3.25858586       0.00000000       0.00000000      -0.38686788
2
Properties=species:S:1:pos:R:3:forces:R:3 energy=-3.4749441389657783 pbc="F F F"
Au       0.00000000       0.00000000       0.00000000       0.00000000       0.00000000       0.35841504
Au       0.00000000       0.00000000       3.31818182       0.00000000       0.00000000      -0.35841504
2
Properties=species:S:1:pos:R:3:forces:R:3 energy=-3.454418846523629 pbc="F F F"
Au       0.00000000       0.00000000       0.00000000       0.00000000       0.00000000       0.33044425
Au       0.00000000       0.00000000       3.37777778       0.00000000       0.00000000      -0.33044425
2
Properties=species:S:1:pos:R:3:forces:R:3 energy=-3.4355574122197576 pbc="F F F"
Au       0.00000000       0.00000000       0.00000000       0.00000000       0.00000000       0.30252454
Au       0.00000000       0.00000000       3.43737374       0.00000000       0.00000000      -0.30252454
2
Properties=species:S:1:pos:R:3:forces:R:3 energy=-3.4183651164939857 pbc="F F F"
Au       0.00000000       0.00000000       0.00000000       0.00000000       0.00000000       0.27442163
Au       0.00000000       0.00000000       3.49696970       0.00000000       0.00000000      -0.27442163
2
Properties=species:S:1:pos:R:3:forces:R:3 energy=-3.4028450763234566 pbc="F F F"
Au       0.00000000       0.00000000       0.00000000       0.00000000       0.00000000       0.24646729
Au       0.00000000       0.00000000       3.55656566       0.00000000       0.00000000      -0.24646729
2
Properties=species:S:1:pos:R:3:forces:R:3 energy=-3.388978289098216 pbc="F F F"
Au       0.00000000       0.00000000       0.00000000       0.00000000       0.00000000       0.21896949
Au       0.00000000       0.00000000       3.61616162       0.00000000       0.00000000      -0.21896949
2
Properties=species:S:1:pos:R:3:forces:R:3 energy=-3.3767388057192256 pbc="F F F"
Au       0.00000000       0.00000000       0.00000000       0.00000000       0.00000000       0.19183005
Au       0.00000000       0.00000000       3.67575758       0.00000000       0.00000000      -0.19183005
2
Properties=species:S:1:pos:R:3:forces:R:3 energy=-3.3661111366586245 pbc="F F F"
Au       0.00000000       0.00000000       0.00000000       0.00000000       0.00000000       0.16484290
Au       0.00000000       0.00000000       3.73535354       0.00000000       0.00000000      -0.16484290
2
Properties=species:S:1:pos:R:3:forces:R:3 energy=-3.357085666489913 pbc="F F F"
Au       0.00000000       0.00000000       0.00000000       0.00000000       0.00000000       0.13815665
Au       0.00000000       0.00000000       3.79494949       0.00000000       0.00000000      -0.13815665
2
Properties=species:S:1:pos:R:3:forces:R:3 energy=-3.3496255390480356 pbc="F F F"
Au       0.00000000       0.00000000       0.00000000       0.00000000       0.00000000       0.11239012
Au       0.00000000       0.00000000       3.85454545       0.00000000       0.00000000      -0.11239012
2
Properties=species:S:1:pos:R:3:forces:R:3 energy=-3.3436542619991707 pbc="F F F"
Au       0.00000000       0.00000000       0.00000000       0.00000000       0.00000000       0.08836672
Au       0.00000000       0.00000000       3.91414141       0.00000000       0.00000000      -0.08836672
2
Properties=species:S:1:pos:R:3:forces:R:3 energy=-3.3390451720737406 pbc="F F F"
Au       0.00000000       0.00000000       0.00000000       0.00000000       0.00000000       0.06675622
Au       0.00000000       0.00000000       3.97373737       0.00000000       0.00000000      -0.06675622
2
Properties=species:S:1:pos:R:3:forces:R:3 energy=-3.3356429592627963 pbc="F F F"
Au       0.00000000       0.00000000       0.00000000       0.00000000       0.00000000       0.04788554
Au       0.00000000       0.00000000       4.03333333       0.00000000       0.00000000      -0.04788554
2
Properties=species:S:1:pos:R:3:forces:R:3 energy=-3.3332827498078106 pbc="F F F"
Au       0.00000000       0.00000000       0.00000000       0.00000000       0.00000000       0.03176745
Au       0.00000000       0.00000000       4.09292929       0.00000000       0.00000000      -0.03176745
2
Properties=species:S:1:pos:R:3:forces:R:3 energy=-3.3318052857941893 pbc="F F F"
Au       0.00000000       0.00000000       0.00000000       0.00000000       0.00000000       0.01822970
Au       0.00000000       0.00000000       4.15252525       0.00000000       0.00000000      -0.01822970
2
Properties=species:S:1:pos:R:3:forces:R:3 energy=-3.331064061869531 pbc="F F F"
Au       0.00000000       0.00000000       0.00000000       0.00000000       0.00000000       0.00702324
Au       0.00000000       0.00000000       4.21212121       0.00000000       0.00000000      -0.00702324
2
Properties=species:S:1:pos:R:3:forces:R:3 energy=-3.3309269181459498 pbc="F F F"
Au       0.00000000       0.00000000       0.00000000       0.00000000       0.00000000      -0.00211617
Au       0.00000000       0.00000000       4.27171717       0.00000000       0.00000000       0.00211617
2
Properties=species:S:1:pos:R:3:forces:R:3 energy=-3.3312795341153882 pbc="F F F"
Au       0.00000000       0.00000000       0.00000000       0.00000000       0.00000000      -0.00942716
Au       0.00000000       0.00000000       4.33131313       0.00000000       0.00000000       0.00942716
2
Properties=species:S:1:pos:R:3:forces:R:3 energy=-3.3320181905610426 pbc="F F F"
Au       0.00000000       0.00000000       0.00000000       0.00000000       0.00000000      -0.01509576
Au       0.00000000       0.00000000       4.39090909       0.00000000       0.00000000       0.01509576
2
Properties=species:S:1:pos:R:3:forces:R:3 energy=-3.333048733519674 pbc="F F F"
Au       0.00000000       0.00000000       0.00000000       0.00000000       0.00000000      -0.01924456
Au       0.00000000       0.00000000       4.45050505       0.00000000       0.00000000       0.01924456
2
Properties=species:S:1:pos:R:3:forces:R:3 energy=-3.334283144554657 pbc="F F F"
Au       0.00000000       0.00000000       0.00000000       0.00000000       0.00000000      -0.02194930
Au       0.00000000       0.00000000       4.51010101       0.00000000       0.00000000       0.02194930
2
Properties=species:S:1:pos:R:3:forces:R:3 energy=-3.335637509862282 pbc="F F F"
Au       0.00000000       0.00000000       0.00000000       0.00000000       0.00000000      -0.02327289
Au       0.00000000       0.00000000       4.56969697       0.00000000       0.00000000       0.02327289
2
Properties=species:S:1:pos:R:3:forces:R:3 energy=-3.3370315212598447 pbc="F F F"
Au       0.00000000       0.00000000       0.00000000       0.00000000       0.00000000      -0.02330939
Au       0.00000000       0.00000000       4.62929293       0.00000000       0.00000000       0.02330939
2
Properties=species:S:1:pos:R:3:forces:R:3 energy=-3.3383933800215853 pbc="F F F"
Au       0.00000000       0.00000000       0.00000000       0.00000000       0.00000000      -0.02221775
Au       0.00000000       0.00000000       4.68888889       0.00000000       0.00000000       0.02221775
2
Properties=species:S:1:pos:R:3:forces:R:3 energy=-3.3396619062159467 pbc="F F F"
Au       0.00000000       0.00000000       0.00000000       0.00000000       0.00000000      -0.02023509
Au       0.00000000       0.00000000       4.74848485       0.00000000       0.00000000       0.02023509
2
Properties=species:S:1:pos:R:3:forces:R:3 energy=-3.3407935898926384 pbc="F F F"
Au       0.00000000       0.00000000       0.00000000       0.00000000       0.00000000      -0.01766513
Au       0.00000000       0.00000000       4.80808081       0.00000000       0.00000000       0.01766513
2
Properties=species:S:1:pos:R:3:forces:R:3 energy=-3.3417624381952558 pbc="F F F"
Au       0.00000000       0.00000000       0.00000000       0.00000000       0.00000000      -0.01484113
Au       0.00000000       0.00000000       4.86767677       0.00000000       0.00000000       0.01484113
2
Properties=species:S:1:pos:R:3:forces:R:3 energy=-3.3425634486857456 pbc="F F F"
Au       0.00000000       0.00000000       0.00000000       0.00000000       0.00000000      -0.01207820
Au       0.00000000       0.00000000       4.92727273       0.00000000       0.00000000       0.01207820
2
Properties=species:S:1:pos:R:3:forces:R:3 energy=-3.3432085768194075 pbc="F F F"
Au       0.00000000       0.00000000       0.00000000       0.00000000       0.00000000      -0.00962591
Au       0.00000000       0.00000000       4.98686869       0.00000000       0.00000000       0.00962591
2
Properties=species:S:1:pos:R:3:forces:R:3 energy=-3.343719866155608 pbc="F F F"
Au       0.00000000       0.00000000       0.00000000       0.00000000       0.00000000      -0.00763343
Au       0.00000000       0.00000000       5.04646465       0.00000000       0.00000000       0.00763343
2
Properties=species:S:1:pos:R:3:forces:R:3 energy=-3.344128218251019 pbc="F F F"
Au       0.00000000       0.00000000       0.00000000       0.00000000       0.00000000      -0.00613704
Au       0.00000000       0.00000000       5.10606061       0.00000000       0.00000000       0.00613704
2
Properties=species:S:1:pos:R:3:forces:R:3 energy=-3.3444605972519037 pbc="F F F"
Au       0.00000000       0.00000000       0.00000000       0.00000000       0.00000000      -0.00506873
Au       0.00000000       0.00000000       5.16565657       0.00000000       0.00000000       0.00506873
2
Properties=species:S:1:pos:R:3:forces:R:3 energy=-3.3447379047177437 pbc="F F F"
Au       0.00000000       0.00000000       0.00000000       0.00000000       0.00000000      -0.00428439
Au       0.00000000       0.00000000       5.22525253       0.00000000       0.00000000       0.00428439
2
Properties=species:S:1:pos:R:3:forces:R:3 energy=-3.34497308811172 pbc="F F F"
Au       0.00000000       0.00000000       0.00000000       0.00000000       0.00000000      -0.00360580
Au       0.00000000       0.00000000       5.28484848       0.00000000       0.00000000       0.00360580
2
Properties=species:S:1:pos:R:3:forces:R:3 energy=-3.345166434201662 pbc="F F F"
Au       0.00000000       0.00000000       0.00000000       0.00000000       0.00000000      -0.00286330
Au       0.00000000       0.00000000       5.34444444       0.00000000       0.00000000       0.00286330
2
Properties=species:S:1:pos:R:3:forces:R:3 energy=-3.345310838819409 pbc="F F F"
Au       0.00000000       0.00000000       0.00000000       0.00000000       0.00000000      -0.00193602
Au       0.00000000       0.00000000       5.40404040       0.00000000       0.00000000       0.00193602
2
Properties=species:S:1:pos:R:3:forces:R:3 energy=-3.345392557754548 pbc="F F F"
Au       0.00000000       0.00000000       0.00000000       0.00000000       0.00000000      -0.00077443
Au       0.00000000       0.00000000       5.46363636       0.00000000       0.00000000       0.00077443
2
Properties=species:S:1:pos:R:3:forces:R:3 energy=-3.345398643663785 pbc="F F F"
Au       0.00000000       0.00000000       0.00000000       0.00000000       0.00000000       0.00059017
Au       0.00000000       0.00000000       5.52323232       0.00000000       0.00000000      -0.00059017
2
Properties=species:S:1:pos:R:3:forces:R:3 energy=-3.3453200795665627 pbc="F F F"
Au       0.00000000       0.00000000       0.00000000       0.00000000       0.00000000       0.00205760
Au       0.00000000       0.00000000       5.58282828       0.00000000       0.00000000      -0.00205760
2
Properties=species:S:1:pos:R:3:forces:R:3 energy=-3.3451539230283625 pbc="F F F"
Au       0.00000000       0.00000000       0.00000000       0.00000000       0.00000000       0.00348542
Au       0.00000000       0.00000000       5.64242424       0.00000000       0.00000000      -0.00348542
2
Properties=species:S:1:pos:R:3:forces:R:3 energy=-3.34490837551535 pbc="F F F"
Au       0.00000000       0.00000000       0.00000000       0.00000000       0.00000000       0.00472176
Au       0.00000000       0.00000000       5.70202020       0.00000000       0.00000000      -0.00472176
2
Properties=species:S:1:pos:R:3:forces:R:3 energy=-3.3445975554006147 pbc="F F F"
Au       0.00000000       0.00000000       0.00000000       0.00000000       0.00000000       0.00564119
Au       0.00000000       0.00000000       5.76161616       0.00000000       0.00000000      -0.00564119
2
Properties=species:S:1:pos:R:3:forces:R:3 energy=-3.344243872646493 pbc="F F F"
Au       0.00000000       0.00000000       0.00000000       0.00000000       0.00000000       0.00617401
Au       0.00000000       0.00000000       5.82121212       0.00000000       0.00000000      -0.00617401
2
Properties=species:S:1:pos:R:3:forces:R:3 energy=-3.34386950275652 pbc="F F F"
Au       0.00000000       0.00000000       0.00000000       0.00000000       0.00000000       0.00632017
Au       0.00000000       0.00000000       5.88080808       0.00000000       0.00000000      -0.00632017
2
Properties=species:S:1:pos:R:3:forces:R:3 energy=-3.3434966077709882 pbc="F F F"
Au       0.00000000       0.00000000       0.00000000       0.00000000       0.00000000       0.00615824
Au       0.00000000       0.00000000       5.94040404       0.00000000       0.00000000      -0.00615824
2
Properties=species:S:1:pos:R:3:forces:R:3 energy=-3.3431390217109858 pbc="F F F"
Au       0.00000000       0.00000000       0.00000000       0.00000000       0.00000000       0.00582827
Au       0.00000000       0.00000000       6.00000000       0.00000000       0.00000000      -0.00582827
