2
Properties=species:S:1:pos:R:3:forces:R:3 energy=99641327.96446215 pbc="F F F"
Br       0.00000000       0.00000000       0.00000000       0.00000000       0.00000000 -540794368.00000000
Br       0.00000000       0.00000000       0.10000000       0.00000000       0.00000000 540794368.00000000
2
Properties=species:S:1:pos:R:3:forces:R:3 energy=65222527.964462146 pbc="F F F"
Br       0.00000000       0.00000000       0.00000000       0.00000000       0.00000000 -575415104.00000000
Br       0.00000000       0.00000000       0.15959596       0.00000000       0.00000000 575415104.00000000
2
Properties=species:S:1:pos:R:3:forces:R:3 energy=34607291.964462146 pbc="F F F"
Br       0.00000000       0.00000000       0.00000000       0.00000000       0.00000000 -433514240.00000000
Br       0.00000000       0.00000000       0.21919192       0.00000000       0.00000000 433514240.00000000
2
Properties=species:S:1:pos:R:3:forces:R:3 energy=14464470.964462148 pbc="F F F"
Br       0.00000000       0.00000000       0.00000000       0.00000000       0.00000000 -244228400.00000000
Br       0.00000000       0.00000000       0.27878788       0.00000000       0.00000000 244228400.00000000
2
Properties=species:S:1:pos:R:3:forces:R:3 energy=4536864.964462152 pbc="F F F"
Br       0.00000000       0.00000000       0.00000000       0.00000000       0.00000000 -100595896.00000000
Br       0.00000000       0.00000000       0.33838384       0.00000000       0.00000000 100595896.00000000
2
Properties=species:S:1:pos:R:3:forces:R:3 energy=1043361.8394621611 pbc="F F F"
Br       0.00000000       0.00000000       0.00000000       0.00000000       0.00000000 -28763404.00000000
Br       0.00000000       0.00000000       0.39797980       0.00000000       0.00000000 28763404.00000000
2
Properties=species:S:1:pos:R:3:forces:R:3 energy=164464.71446218004 pbc="F F F"
Br       0.00000000       0.00000000       0.00000000       0.00000000       0.00000000 -5346068.00000000
Br       0.00000000       0.00000000       0.45757576       0.00000000       0.00000000 5346068.00000000
2
Properties=species:S:1:pos:R:3:forces:R:3 energy=25800.165634096225 pbc="F F F"
Br       0.00000000       0.00000000       0.00000000       0.00000000       0.00000000 -822586.68750000
Br       0.00000000       0.00000000       0.51717172       0.00000000       0.00000000  822586.68750000
2
Properties=species:S:1:pos:R:3:forces:R:3 energy=3690.930770881499 pbc="F F F"
Br       0.00000000       0.00000000       0.00000000       0.00000000       0.00000000 -122279.05468750
Br       0.00000000       0.00000000       0.57676768       0.00000000       0.00000000  122279.05468750
2
Properties=species:S:1:pos:R:3:forces:R:3 energy=463.24577343694693 pbc="F F F"
Br       0.00000000       0.00000000       0.00000000       0.00000000       0.00000000  -18696.50390625
Br       0.00000000       0.00000000       0.63636364       0.00000000       0.00000000   18696.50390625
2
Properties=species:S:1:pos:R:3:forces:R:3 energy=21.080145193788734 pbc="F F F"
Br       0.00000000       0.00000000       0.00000000       0.00000000       0.00000000   -1839.38024902
Br       0.00000000       0.00000000       0.69595960       0.00000000       0.00000000    1839.38024902
2
Properties=species:S:1:pos:R:3:forces:R:3 energy=17.14945852504131 pbc="F F F"
Br       0.00000000       0.00000000       0.00000000       0.00000000       0.00000000     245.69241333
Br       0.00000000       0.00000000       0.75555556       0.00000000       0.00000000    -245.69241333
2
Properties=species:S:1:pos:R:3:forces:R:3 energy=36.96948725775101 pbc="F F F"
Br       0.00000000       0.00000000       0.00000000       0.00000000       0.00000000     420.59619141
Br       0.00000000       0.00000000       0.81515152       0.00000000       0.00000000    -420.59619141
2
Properties=species:S:1:pos:R:3:forces:R:3 energy=60.51162120360733 pbc="F F F"
Br       0.00000000       0.00000000       0.00000000       0.00000000       0.00000000     310.75326538
Br       0.00000000       0.00000000       0.87474747       0.00000000       0.00000000    -310.75326538
2
Properties=species:S:1:pos:R:3:forces:R:3 energy=73.17973578642234 pbc="F F F"
Br       0.00000000       0.00000000       0.00000000       0.00000000       0.00000000     126.08477783
Br       0.00000000       0.00000000       0.93434343       0.00000000       0.00000000    -126.08477783
2
Properties=species:S:1:pos:R:3:forces:R:3 energy=75.81195440375697 pbc="F F F"
Br       0.00000000       0.00000000       0.00000000       0.00000000       0.00000000     -35.41451263
Br       0.00000000       0.00000000       0.99393939       0.00000000       0.00000000      35.41451263
2
Properties=species:S:1:pos:R:3:forces:R:3 energy=71.45490801002087 pbc="F F F"
Br       0.00000000       0.00000000       0.00000000       0.00000000       0.00000000     -89.76641846
Br       0.00000000       0.00000000       1.05353535       0.00000000       0.00000000      89.76641846
2
Properties=species:S:1:pos:R:3:forces:R:3 energy=64.7167281342827 pbc="F F F"
Br       0.00000000       0.00000000       0.00000000       0.00000000       0.00000000    -158.04194641
Br       0.00000000       0.00000000       1.11313131       0.00000000       0.00000000     158.04194641
2
Properties=species:S:1:pos:R:3:forces:R:3 energy=54.751978826070875 pbc="F F F"
Br       0.00000000       0.00000000       0.00000000       0.00000000       0.00000000    -143.19970703
Br       0.00000000       0.00000000       1.17272727       0.00000000       0.00000000     143.19970703
2
Properties=species:S:1:pos:R:3:forces:R:3 energy=49.010802156850424 pbc="F F F"
Br       0.00000000       0.00000000       0.00000000       0.00000000       0.00000000    -107.04723358
Br       0.00000000       0.00000000       1.23232323       0.00000000       0.00000000     107.04723358
2
Properties=species:S:1:pos:R:3:forces:R:3 energy=40.03928368702798 pbc="F F F"
Br       0.00000000       0.00000000       0.00000000       0.00000000       0.00000000    -170.88705444
Br       0.00000000       0.00000000       1.29191919       0.00000000       0.00000000     170.88705444
2
Properties=species:S:1:pos:R:3:forces:R:3 energy=30.87624963979191 pbc="F F F"
Br       0.00000000       0.00000000       0.00000000       0.00000000       0.00000000    -124.49591064
Br       0.00000000       0.00000000       1.35151515       0.00000000       0.00000000     124.49591064
2
Properties=species:S:1:pos:R:3:forces:R:3 energy=24.689106369728247 pbc="F F F"
Br       0.00000000       0.00000000       0.00000000       0.00000000       0.00000000     -91.24066162
Br       0.00000000       0.00000000       1.41111111       0.00000000       0.00000000      91.24066162
2
Properties=species:S:1:pos:R:3:forces:R:3 energy=19.478628583499766 pbc="F F F"
Br       0.00000000       0.00000000       0.00000000       0.00000000       0.00000000     -85.31839752
Br       0.00000000       0.00000000       1.47070707       0.00000000       0.00000000      85.31839752
2
Properties=species:S:1:pos:R:3:forces:R:3 energy=14.551890225874377 pbc="F F F"
Br       0.00000000       0.00000000       0.00000000       0.00000000       0.00000000     -78.71328735
Br       0.00000000       0.00000000       1.53030303       0.00000000       0.00000000      78.71328735
2
Properties=species:S:1:pos:R:3:forces:R:3 energy=10.268991513820714 pbc="F F F"
Br       0.00000000       0.00000000       0.00000000       0.00000000       0.00000000     -64.38809204
Br       0.00000000       0.00000000       1.58989899       0.00000000       0.00000000      64.38809204
2
Properties=species:S:1:pos:R:3:forces:R:3 energy=6.8445282435204975 pbc="F F F"
Br       0.00000000       0.00000000       0.00000000       0.00000000       0.00000000     -50.76726532
Br       0.00000000       0.00000000       1.64949495       0.00000000       0.00000000      50.76726532
2
Properties=species:S:1:pos:R:3:forces:R:3 energy=4.188764959197782 pbc="F F F"
Br       0.00000000       0.00000000       0.00000000       0.00000000       0.00000000     -38.63597870
Br       0.00000000       0.00000000       1.70909091       0.00000000       0.00000000      38.63597870
2
Properties=species:S:1:pos:R:3:forces:R:3 energy=2.203942564418021 pbc="F F F"
Br       0.00000000       0.00000000       0.00000000       0.00000000       0.00000000     -28.63042831
Br       0.00000000       0.00000000       1.76868687       0.00000000       0.00000000      28.63042831
2
Properties=species:S:1:pos:R:3:forces:R:3 energy=0.6952756431430566 pbc="F F F"
Br       0.00000000       0.00000000       0.00000000       0.00000000       0.00000000     -22.33912849
Br       0.00000000       0.00000000       1.82828283       0.00000000       0.00000000      22.33912849
2
Properties=species:S:1:pos:R:3:forces:R:3 energy=-0.46705489533798034 pbc="F F F"
Br       0.00000000       0.00000000       0.00000000       0.00000000       0.00000000     -16.74594307
Br       0.00000000       0.00000000       1.88787879       0.00000000       0.00000000      16.74594307
2
Properties=species:S:1:pos:R:3:forces:R:3 energy=-1.3235486044993159 pbc="F F F"
Br       0.00000000       0.00000000       0.00000000       0.00000000       0.00000000     -12.22718906
Br       0.00000000       0.00000000       1.94747475       0.00000000       0.00000000      12.22718906
2
Properties=species:S:1:pos:R:3:forces:R:3 energy=-1.9451641210249198 pbc="F F F"
Br       0.00000000       0.00000000       0.00000000       0.00000000       0.00000000      -8.76439095
Br       0.00000000       0.00000000       2.00707071       0.00000000       0.00000000       8.76439095
2
Properties=species:S:1:pos:R:3:forces:R:3 energy=-2.3832257207309935 pbc="F F F"
Br       0.00000000       0.00000000       0.00000000       0.00000000       0.00000000      -6.05926132
Br       0.00000000       0.00000000       2.06666667       0.00000000       0.00000000       6.05926132
2
Properties=species:S:1:pos:R:3:forces:R:3 energy=-2.6781692526457284 pbc="F F F"
Br       0.00000000       0.00000000       0.00000000       0.00000000       0.00000000      -3.91211295
Br       0.00000000       0.00000000       2.12626263       0.00000000       0.00000000       3.91211295
2
Properties=species:S:1:pos:R:3:forces:R:3 energy=-2.859324437504009 pbc="F F F"
Br       0.00000000       0.00000000       0.00000000       0.00000000       0.00000000      -2.24503422
Br       0.00000000       0.00000000       2.18585859       0.00000000       0.00000000       2.24503422
2
Properties=species:S:1:pos:R:3:forces:R:3 energy=-2.952888303456131 pbc="F F F"
Br       0.00000000       0.00000000       0.00000000       0.00000000       0.00000000      -0.95241898
Br       0.00000000       0.00000000       2.24545455       0.00000000       0.00000000       0.95241898
2
Properties=species:S:1:pos:R:3:forces:R:3 energy=-2.9801372819752934 pbc="F F F"
Br       0.00000000       0.00000000       0.00000000       0.00000000       0.00000000      -0.01543657
Br       0.00000000       0.00000000       2.30505051       0.00000000       0.00000000       0.01543657
2
Properties=species:S:1:pos:R:3:forces:R:3 energy=-2.960191194445124 pbc="F F F"
Br       0.00000000       0.00000000       0.00000000       0.00000000       0.00000000       0.64105827
Br       0.00000000       0.00000000       2.36464646       0.00000000       0.00000000      -0.64105827
2
Properties=species:S:1:pos:R:3:forces:R:3 energy=-2.90815881978014 pbc="F F F"
Br       0.00000000       0.00000000       0.00000000       0.00000000       0.00000000       1.07953441
Br       0.00000000       0.00000000       2.42424242       0.00000000       0.00000000      -1.07953441
2
Properties=species:S:1:pos:R:3:forces:R:3 energy=-2.833486108334976 pbc="F F F"
Br       0.00000000       0.00000000       0.00000000       0.00000000       0.00000000       1.41271532
Br       0.00000000       0.00000000       2.48383838       0.00000000       0.00000000      -1.41271532
2
Properties=species:S:1:pos:R:3:forces:R:3 energy=-2.742250973399525 pbc="F F F"
Br       0.00000000       0.00000000       0.00000000       0.00000000       0.00000000       1.61919987
Br       0.00000000       0.00000000       2.54343434       0.00000000       0.00000000      -1.61919987
2
Properties=species:S:1:pos:R:3:forces:R:3 energy=-2.6444845887373702 pbc="F F F"
Br       0.00000000       0.00000000       0.00000000       0.00000000       0.00000000       1.62973464
Br       0.00000000       0.00000000       2.60303030       0.00000000       0.00000000      -1.62973464
2
Properties=species:S:1:pos:R:3:forces:R:3 energy=-2.5511061526199676 pbc="F F F"
Br       0.00000000       0.00000000       0.00000000       0.00000000       0.00000000       1.48477304
Br       0.00000000       0.00000000       2.66262626       0.00000000       0.00000000      -1.48477304
2
Properties=species:S:1:pos:R:3:forces:R:3 energy=-2.4689917690538485 pbc="F F F"
Br       0.00000000       0.00000000       0.00000000       0.00000000       0.00000000       1.26481044
Br       0.00000000       0.00000000       2.72222222       0.00000000       0.00000000      -1.26481044
2
Properties=species:S:1:pos:R:3:forces:R:3 energy=-2.400494611047212 pbc="F F F"
Br       0.00000000       0.00000000       0.00000000       0.00000000       0.00000000       1.03621984
Br       0.00000000       0.00000000       2.78181818       0.00000000       0.00000000      -1.03621984
2
Properties=species:S:1:pos:R:3:forces:R:3 energy=-2.3450506809074763 pbc="F F F"
Br       0.00000000       0.00000000       0.00000000       0.00000000       0.00000000       0.82826728
Br       0.00000000       0.00000000       2.84141414       0.00000000       0.00000000      -0.82826728
2
Properties=species:S:1:pos:R:3:forces:R:3 energy=-2.3013780212287753 pbc="F F F"
Br       0.00000000       0.00000000       0.00000000       0.00000000       0.00000000       0.64004391
Br       0.00000000       0.00000000       2.90101010       0.00000000       0.00000000      -0.64004391
2
Properties=species:S:1:pos:R:3:forces:R:3 energy=-2.2685034391766203 pbc="F F F"
Br       0.00000000       0.00000000       0.00000000       0.00000000       0.00000000       0.46511322
Br       0.00000000       0.00000000       2.96060606       0.00000000       0.00000000      -0.46511322
2
Properties=species:S:1:pos:R:3:forces:R:3 energy=-2.245659881001652 pbc="F F F"
Br       0.00000000       0.00000000       0.00000000       0.00000000       0.00000000       0.30468962
Br       0.00000000       0.00000000       3.02020202       0.00000000       0.00000000      -0.30468962
2
Properties=species:S:1:pos:R:3:forces:R:3 energy=-2.23167062254477 pbc="F F F"
Br       0.00000000       0.00000000       0.00000000       0.00000000       0.00000000       0.17028287
Br       0.00000000       0.00000000       3.07979798       0.00000000       0.00000000      -0.17028287
2
Properties=species:S:1:pos:R:3:forces:R:3 energy=-2.224622228413504 pbc="F F F"
Br       0.00000000       0.00000000       0.00000000       0.00000000       0.00000000       0.07281724
Br       0.00000000       0.00000000       3.13939394       0.00000000       0.00000000      -0.07281724
2
Properties=species:S:1:pos:R:3:forces:R:3 energy=-2.222243711149276 pbc="F F F"
Br       0.00000000       0.00000000       0.00000000       0.00000000       0.00000000       0.01259827
Br       0.00000000       0.00000000       3.19898990       0.00000000       0.00000000      -0.01259827
2
Properties=species:S:1:pos:R:3:forces:R:3 energy=-2.2225804658669244 pbc="F F F"
Br       0.00000000       0.00000000       0.00000000       0.00000000       0.00000000      -0.02055611
Br       0.00000000       0.00000000       3.25858586       0.00000000       0.00000000       0.02055611
2
Properties=species:S:1:pos:R:3:forces:R:3 energy=-2.2244338316240104 pbc="F F F"
Br       0.00000000       0.00000000       0.00000000       0.00000000       0.00000000      -0.04051719
Br       0.00000000       0.00000000       3.31818182       0.00000000       0.00000000       0.04051719
2
Properties=species:S:1:pos:R:3:forces:R:3 energy=-2.2273694966120776 pbc="F F F"
Br       0.00000000       0.00000000       0.00000000       0.00000000       0.00000000      -0.05819908
Br       0.00000000       0.00000000       3.37777778       0.00000000       0.00000000       0.05819908
2
Properties=species:S:1:pos:R:3:forces:R:3 energy=-2.231422738269134 pbc="F F F"
Br       0.00000000       0.00000000       0.00000000       0.00000000       0.00000000      -0.07828970
Br       0.00000000       0.00000000       3.43737374       0.00000000       0.00000000       0.07828970
2
Properties=species:S:1:pos:R:3:forces:R:3 energy=-2.236728761272367 pbc="F F F"
Br       0.00000000       0.00000000       0.00000000       0.00000000       0.00000000      -0.09973732
Br       0.00000000       0.00000000       3.49696970       0.00000000       0.00000000       0.09973732
2
Properties=species:S:1:pos:R:3:forces:R:3 energy=-2.2432641227496077 pbc="F F F"
Br       0.00000000       0.00000000       0.00000000       0.00000000       0.00000000      -0.11889964
Br       0.00000000       0.00000000       3.55656566       0.00000000       0.00000000       0.11889964
2
Properties=species:S:1:pos:R:3:forces:R:3 energy=-2.2507969432259918 pbc="F F F"
Br       0.00000000       0.00000000       0.00000000       0.00000000       0.00000000      -0.13288879
Br       0.00000000       0.00000000       3.61616162       0.00000000       0.00000000       0.13288879
2
Properties=species:S:1:pos:R:3:forces:R:3 energy=-2.2589866123553652 pbc="F F F"
Br       0.00000000       0.00000000       0.00000000       0.00000000       0.00000000      -0.14104220
Br       0.00000000       0.00000000       3.67575758       0.00000000       0.00000000       0.14104220
2
Properties=species:S:1:pos:R:3:forces:R:3 energy=-2.267515291437815 pbc="F F F"
Br       0.00000000       0.00000000       0.00000000       0.00000000       0.00000000      -0.14454475
Br       0.00000000       0.00000000       3.73535354       0.00000000       0.00000000       0.14454475
2
Properties=species:S:1:pos:R:3:forces:R:3 energy=-2.2761624243933345 pbc="F F F"
Br       0.00000000       0.00000000       0.00000000       0.00000000       0.00000000      -0.14537044
Br       0.00000000       0.00000000       3.79494949       0.00000000       0.00000000       0.14537044
2
Properties=species:S:1:pos:R:3:forces:R:3 energy=-2.284826356240873 pbc="F F F"
Br       0.00000000       0.00000000       0.00000000       0.00000000       0.00000000      -0.14539362
Br       0.00000000       0.00000000       3.85454545       0.00000000       0.00000000       0.14539362
2
Properties=species:S:1:pos:R:3:forces:R:3 energy=-2.2935015201904876 pbc="F F F"
Br       0.00000000       0.00000000       0.00000000       0.00000000       0.00000000      -0.14589067
Br       0.00000000       0.00000000       3.91414141       0.00000000       0.00000000       0.14589067
2
Properties=species:S:1:pos:R:3:forces:R:3 energy=-2.302235443103545 pbc="F F F"
Br       0.00000000       0.00000000       0.00000000       0.00000000       0.00000000      -0.14738266
Br       0.00000000       0.00000000       3.97373737       0.00000000       0.00000000       0.14738266
2
Properties=species:S:1:pos:R:3:forces:R:3 energy=-2.3110859386863583 pbc="F F F"
Br       0.00000000       0.00000000       0.00000000       0.00000000       0.00000000      -0.14973703
Br       0.00000000       0.00000000       4.03333333       0.00000000       0.00000000       0.14973703
2
Properties=species:S:1:pos:R:3:forces:R:3 energy=-2.3200899958654824 pbc="F F F"
Br       0.00000000       0.00000000       0.00000000       0.00000000       0.00000000      -0.15243092
Br       0.00000000       0.00000000       4.09292929       0.00000000       0.00000000       0.15243092
2
Properties=species:S:1:pos:R:3:forces:R:3 energy=-2.3292486538791004 pbc="F F F"
Br       0.00000000       0.00000000       0.00000000       0.00000000       0.00000000      -0.15481433
Br       0.00000000       0.00000000       4.15252525       0.00000000       0.00000000       0.15481433
2
Properties=species:S:1:pos:R:3:forces:R:3 energy=-2.3385247567234138 pbc="F F F"
Br       0.00000000       0.00000000       0.00000000       0.00000000       0.00000000      -0.15629561
Br       0.00000000       0.00000000       4.21212121       0.00000000       0.00000000       0.15629561
2
Properties=species:S:1:pos:R:3:forces:R:3 energy=-2.347850959597934 pbc="F F F"
Br       0.00000000       0.00000000       0.00000000       0.00000000       0.00000000      -0.15642776
Br       0.00000000       0.00000000       4.27171717       0.00000000       0.00000000       0.15642776
2
Properties=species:S:1:pos:R:3:forces:R:3 energy=-2.35713759038295 pbc="F F F"
Br       0.00000000       0.00000000       0.00000000       0.00000000       0.00000000      -0.15496017
Br       0.00000000       0.00000000       4.33131313       0.00000000       0.00000000       0.15496017
2
Properties=species:S:1:pos:R:3:forces:R:3 energy=-2.366288293398904 pbc="F F F"
Br       0.00000000       0.00000000       0.00000000       0.00000000       0.00000000      -0.15184957
Br       0.00000000       0.00000000       4.39090909       0.00000000       0.00000000       0.15184957
2
Properties=species:S:1:pos:R:3:forces:R:3 energy=-2.3752067003748745 pbc="F F F"
Br       0.00000000       0.00000000       0.00000000       0.00000000       0.00000000      -0.14722289
Br       0.00000000       0.00000000       4.45050505       0.00000000       0.00000000       0.14722289
2
Properties=species:S:1:pos:R:3:forces:R:3 energy=-2.383810262685943 pbc="F F F"
Br       0.00000000       0.00000000       0.00000000       0.00000000       0.00000000      -0.14130101
Br       0.00000000       0.00000000       4.51010101       0.00000000       0.00000000       0.14130101
2
Properties=species:S:1:pos:R:3:forces:R:3 energy=-2.392028572127718 pbc="F F F"
Br       0.00000000       0.00000000       0.00000000       0.00000000       0.00000000      -0.13432184
Br       0.00000000       0.00000000       4.56969697       0.00000000       0.00000000       0.13432184
2
Properties=species:S:1:pos:R:3:forces:R:3 energy=-2.3998038939823325 pbc="F F F"
Br       0.00000000       0.00000000       0.00000000       0.00000000       0.00000000      -0.12649634
Br       0.00000000       0.00000000       4.62929293       0.00000000       0.00000000       0.12649634
2
Properties=species:S:1:pos:R:3:forces:R:3 energy=-2.4070921254444997 pbc="F F F"
Br       0.00000000       0.00000000       0.00000000       0.00000000       0.00000000      -0.11800874
Br       0.00000000       0.00000000       4.68888889       0.00000000       0.00000000       0.11800874
2
Properties=species:S:1:pos:R:3:forces:R:3 energy=-2.413859039528952 pbc="F F F"
Br       0.00000000       0.00000000       0.00000000       0.00000000       0.00000000      -0.10903952
Br       0.00000000       0.00000000       4.74848485       0.00000000       0.00000000       0.10903952
2
Properties=species:S:1:pos:R:3:forces:R:3 energy=-2.420082455388279 pbc="F F F"
Br       0.00000000       0.00000000       0.00000000       0.00000000       0.00000000      -0.09979705
Br       0.00000000       0.00000000       4.80808081       0.00000000       0.00000000       0.09979705
2
Properties=species:S:1:pos:R:3:forces:R:3 energy=-2.4257535008898605 pbc="F F F"
Br       0.00000000       0.00000000       0.00000000       0.00000000       0.00000000      -0.09052536
Br       0.00000000       0.00000000       4.86767677       0.00000000       0.00000000       0.09052536
2
Properties=species:S:1:pos:R:3:forces:R:3 energy=-2.4308771345944957 pbc="F F F"
Br       0.00000000       0.00000000       0.00000000       0.00000000       0.00000000      -0.08148845
Br       0.00000000       0.00000000       4.92727273       0.00000000       0.00000000       0.08148845
2
Properties=species:S:1:pos:R:3:forces:R:3 energy=-2.435476454713845 pbc="F F F"
Br       0.00000000       0.00000000       0.00000000       0.00000000       0.00000000      -0.07292695
Br       0.00000000       0.00000000       4.98686869       0.00000000       0.00000000       0.07292695
2
Properties=species:S:1:pos:R:3:forces:R:3 energy=-2.4395827583900203 pbc="F F F"
Br       0.00000000       0.00000000       0.00000000       0.00000000       0.00000000      -0.06501253
Br       0.00000000       0.00000000       5.04646465       0.00000000       0.00000000       0.06501253
2
Properties=species:S:1:pos:R:3:forces:R:3 energy=-2.443239356392846 pbc="F F F"
Br       0.00000000       0.00000000       0.00000000       0.00000000       0.00000000      -0.05780897
Br       0.00000000       0.00000000       5.10606061       0.00000000       0.00000000       0.05780897
2
Properties=species:S:1:pos:R:3:forces:R:3 energy=-2.4464859147093088 pbc="F F F"
Br       0.00000000       0.00000000       0.00000000       0.00000000       0.00000000      -0.05126230
Br       0.00000000       0.00000000       5.16565657       0.00000000       0.00000000       0.05126230
2
Properties=species:S:1:pos:R:3:forces:R:3 energy=-2.44935988465905 pbc="F F F"
Br       0.00000000       0.00000000       0.00000000       0.00000000       0.00000000      -0.04522580
Br       0.00000000       0.00000000       5.22525253       0.00000000       0.00000000       0.04522580
2
Properties=species:S:1:pos:R:3:forces:R:3 energy=-2.4518831736286937 pbc="F F F"
Br       0.00000000       0.00000000       0.00000000       0.00000000       0.00000000      -0.03950686
Br       0.00000000       0.00000000       5.28484848       0.00000000       0.00000000       0.03950686
2
Properties=species:S:1:pos:R:3:forces:R:3 energy=-2.454071012096715 pbc="F F F"
Br       0.00000000       0.00000000       0.00000000       0.00000000       0.00000000      -0.03392297
Br       0.00000000       0.00000000       5.34444444       0.00000000       0.00000000       0.03392297
2
Properties=species:S:1:pos:R:3:forces:R:3 energy=-2.4559264608986338 pbc="F F F"
Br       0.00000000       0.00000000       0.00000000       0.00000000       0.00000000      -0.02836102
Br       0.00000000       0.00000000       5.40404040       0.00000000       0.00000000       0.02836102
2
Properties=species:S:1:pos:R:3:forces:R:3 energy=-2.4574523618543003 pbc="F F F"
Br       0.00000000       0.00000000       0.00000000       0.00000000       0.00000000      -0.02280396
Br       0.00000000       0.00000000       5.46363636       0.00000000       0.00000000       0.02280396
2
Properties=species:S:1:pos:R:3:forces:R:3 energy=-2.458646573752071 pbc="F F F"
Br       0.00000000       0.00000000       0.00000000       0.00000000       0.00000000      -0.01734217
Br       0.00000000       0.00000000       5.52323232       0.00000000       0.00000000       0.01734217
2
Properties=species:S:1:pos:R:3:forces:R:3 energy=-2.4595239230931725 pbc="F F F"
Br       0.00000000       0.00000000       0.00000000       0.00000000       0.00000000      -0.01215391
Br       0.00000000       0.00000000       5.58282828       0.00000000       0.00000000       0.01215391
2
Properties=species:S:1:pos:R:3:forces:R:3 energy=-2.460105465752176 pbc="F F F"
Br       0.00000000       0.00000000       0.00000000       0.00000000       0.00000000      -0.00747357
Br       0.00000000       0.00000000       5.64242424       0.00000000       0.00000000       0.00747357
2
Properties=species:S:1:pos:R:3:forces:R:3 energy=-2.4604299524515945 pbc="F F F"
Br       0.00000000       0.00000000       0.00000000       0.00000000       0.00000000      -0.00353437
Br       0.00000000       0.00000000       5.70202020       0.00000000       0.00000000       0.00353437
2
Properties=species:S:1:pos:R:3:forces:R:3 energy=-2.4605452445051004 pbc="F F F"
Br       0.00000000       0.00000000       0.00000000       0.00000000       0.00000000      -0.00052204
Br       0.00000000       0.00000000       5.76161616       0.00000000       0.00000000       0.00052204
2
Properties=species:S:1:pos:R:3:forces:R:3 energy=-2.4605111657329886 pbc="F F F"
Br       0.00000000       0.00000000       0.00000000       0.00000000       0.00000000       0.00148592
Br       0.00000000       0.00000000       5.82121212       0.00000000       0.00000000      -0.00148592
2
Properties=species:S:1:pos:R:3:forces:R:3 energy=-2.4603873591517376 pbc="F F F"
Br       0.00000000       0.00000000       0.00000000       0.00000000       0.00000000       0.00254016
Br       0.00000000       0.00000000       5.88080808       0.00000000       0.00000000      -0.00254016
2
Properties=species:S:1:pos:R:3:forces:R:3 energy=-2.4602232630982703 pbc="F F F"
Br       0.00000000       0.00000000       0.00000000       0.00000000       0.00000000       0.00284660
Br       0.00000000       0.00000000       5.94040404       0.00000000       0.00000000      -0.00284660
2
Properties=species:S:1:pos:R:3:forces:R:3 energy=-2.460056205861206 pbc="F F F"
Br       0.00000000       0.00000000       0.00000000       0.00000000       0.00000000       0.00273432
Br       0.00000000       0.00000000       6.00000000       0.00000000       0.00000000      -0.00273432
