2
Properties=species:S:1:pos:R:3:forces:R:3 energy=280980.13761554915 pbc="F F F"
C        0.00000000       0.00000000       0.00000000       0.00000000       0.00000000 -1149156.62500000
C        0.00000000       0.00000000       0.10000000       0.00000000       0.00000000 1149156.62500000
2
Properties=species:S:1:pos:R:3:forces:R:3 energy=203854.29386554915 pbc="F F F"
C        0.00000000       0.00000000       0.00000000       0.00000000       0.00000000 -1366220.12500000
C        0.00000000       0.00000000       0.15959596       0.00000000       0.00000000 1366220.12500000
2
Properties=species:S:1:pos:R:3:forces:R:3 energy=126021.37980305073 pbc="F F F"
C        0.00000000       0.00000000       0.00000000       0.00000000       0.00000000 -1193388.25000000
C        0.00000000       0.00000000       0.21919192       0.00000000       0.00000000 1193388.25000000
2
Properties=species:S:1:pos:R:3:forces:R:3 energy=65688.95792805232 pbc="F F F"
C        0.00000000       0.00000000       0.00000000       0.00000000       0.00000000 -815854.56250000
C        0.00000000       0.00000000       0.27878788       0.00000000       0.00000000  815854.56250000
2
Properties=species:S:1:pos:R:3:forces:R:3 energy=28627.686443683648 pbc="F F F"
C        0.00000000       0.00000000       0.00000000       0.00000000       0.00000000 -443163.25000000
C        0.00000000       0.00000000       0.33838384       0.00000000       0.00000000  443163.25000000
2
Properties=species:S:1:pos:R:3:forces:R:3 energy=10170.183514011986 pbc="F F F"
C        0.00000000       0.00000000       0.00000000       0.00000000       0.00000000 -195880.51562500
C        0.00000000       0.00000000       0.39797980       0.00000000       0.00000000  195880.51562500
2
Properties=species:S:1:pos:R:3:forces:R:3 energy=2878.6976741999147 pbc="F F F"
C        0.00000000       0.00000000       0.00000000       0.00000000       0.00000000  -67861.56250000
C        0.00000000       0.00000000       0.45757576       0.00000000       0.00000000   67861.56250000
2
Properties=species:S:1:pos:R:3:forces:R:3 energy=577.4910092210408 pbc="F F F"
C        0.00000000       0.00000000       0.00000000       0.00000000       0.00000000  -18211.49609375
C        0.00000000       0.00000000       0.51717172       0.00000000       0.00000000   18211.49609375
2
Properties=species:S:1:pos:R:3:forces:R:3 energy=118.11743602552413 pbc="F F F"
C        0.00000000       0.00000000       0.00000000       0.00000000       0.00000000   -2783.69067383
C        0.00000000       0.00000000       0.57676768       0.00000000       0.00000000    2783.69067383
2
Properties=species:S:1:pos:R:3:forces:R:3 energy=45.881733691441546 pbc="F F F"
C        0.00000000       0.00000000       0.00000000       0.00000000       0.00000000    -486.28973389
C        0.00000000       0.00000000       0.63636364       0.00000000       0.00000000     486.28973389
2
Properties=species:S:1:pos:R:3:forces:R:3 energy=27.598101702854894 pbc="F F F"
C        0.00000000       0.00000000       0.00000000       0.00000000       0.00000000    -220.17344666
C        0.00000000       0.00000000       0.69595960       0.00000000       0.00000000     220.17344666
2
Properties=species:S:1:pos:R:3:forces:R:3 energy=16.812388952133123 pbc="F F F"
C        0.00000000       0.00000000       0.00000000       0.00000000       0.00000000    -145.77507019
C        0.00000000       0.00000000       0.75555556       0.00000000       0.00000000     145.77507019
2
Properties=species:S:1:pos:R:3:forces:R:3 energy=9.0904505288778 pbc="F F F"
C        0.00000000       0.00000000       0.00000000       0.00000000       0.00000000    -119.42195892
C        0.00000000       0.00000000       0.81515152       0.00000000       0.00000000     119.42195892
2
Properties=species:S:1:pos:R:3:forces:R:3 energy=2.6869270930920233 pbc="F F F"
C        0.00000000       0.00000000       0.00000000       0.00000000       0.00000000     -96.06249237
C        0.00000000       0.00000000       0.87474747       0.00000000       0.00000000      96.06249237
2
Properties=species:S:1:pos:R:3:forces:R:3 energy=-2.3254464274258737 pbc="F F F"
C        0.00000000       0.00000000       0.00000000       0.00000000       0.00000000     -69.70901489
C        0.00000000       0.00000000       0.93434343       0.00000000       0.00000000      69.70901489
2
Properties=species:S:1:pos:R:3:forces:R:3 energy=-5.73006281373588 pbc="F F F"
C        0.00000000       0.00000000       0.00000000       0.00000000       0.00000000     -46.88358307
C        0.00000000       0.00000000       0.99393939       0.00000000       0.00000000      46.88358307
2
Properties=species:S:1:pos:R:3:forces:R:3 energy=-8.043793366114075 pbc="F F F"
C        0.00000000       0.00000000       0.00000000       0.00000000       0.00000000     -30.36162567
C        0.00000000       0.00000000       1.05353535       0.00000000       0.00000000      30.36162567
2
Properties=species:S:1:pos:R:3:forces:R:3 energy=-9.487197027340642 pbc="F F F"
C        0.00000000       0.00000000       0.00000000       0.00000000       0.00000000     -18.76131821
C        0.00000000       0.00000000       1.11313131       0.00000000       0.00000000      18.76131821
2
Properties=species:S:1:pos:R:3:forces:R:3 energy=-10.35189670546278 pbc="F F F"
C        0.00000000       0.00000000       0.00000000       0.00000000       0.00000000     -10.75444221
C        0.00000000       0.00000000       1.17272727       0.00000000       0.00000000      10.75444221
2
Properties=species:S:1:pos:R:3:forces:R:3 energy=-10.80168572515269 pbc="F F F"
C        0.00000000       0.00000000       0.00000000       0.00000000       0.00000000      -4.51176357
C        0.00000000       0.00000000       1.23232323       0.00000000       0.00000000       4.51176357
2
Properties=species:S:1:pos:R:3:forces:R:3 energy=-10.966593525584528 pbc="F F F"
C        0.00000000       0.00000000       0.00000000       0.00000000       0.00000000      -0.94115329
C        0.00000000       0.00000000       1.29191919       0.00000000       0.00000000       0.94115329
2
Properties=species:S:1:pos:R:3:forces:R:3 energy=-10.941076592525244 pbc="F F F"
C        0.00000000       0.00000000       0.00000000       0.00000000       0.00000000       1.83148777
C        0.00000000       0.00000000       1.35151515       0.00000000       0.00000000      -1.83148777
2
Properties=species:S:1:pos:R:3:forces:R:3 energy=-10.77354815671378 pbc="F F F"
C        0.00000000       0.00000000       0.00000000       0.00000000       0.00000000       3.60507274
C        0.00000000       0.00000000       1.41111111       0.00000000       0.00000000      -3.60507274
2
Properties=species:S:1:pos:R:3:forces:R:3 energy=-10.505815706447144 pbc="F F F"
C        0.00000000       0.00000000       0.00000000       0.00000000       0.00000000       5.40369225
C        0.00000000       0.00000000       1.47070707       0.00000000       0.00000000      -5.40369225
2
Properties=species:S:1:pos:R:3:forces:R:3 energy=-10.138181518309922 pbc="F F F"
C        0.00000000       0.00000000       0.00000000       0.00000000       0.00000000       6.80469799
C        0.00000000       0.00000000       1.53030303       0.00000000       0.00000000      -6.80469799
2
Properties=species:S:1:pos:R:3:forces:R:3 energy=-9.71945557816347 pbc="F F F"
C        0.00000000       0.00000000       0.00000000       0.00000000       0.00000000       7.19455099
C        0.00000000       0.00000000       1.58989899       0.00000000       0.00000000      -7.19455099
2
Properties=species:S:1:pos:R:3:forces:R:3 energy=-9.275297560727065 pbc="F F F"
C        0.00000000       0.00000000       0.00000000       0.00000000       0.00000000       7.56561136
C        0.00000000       0.00000000       1.64949495       0.00000000       0.00000000      -7.56561136
2
Properties=species:S:1:pos:R:3:forces:R:3 energy=-8.82501006160856 pbc="F F F"
C        0.00000000       0.00000000       0.00000000       0.00000000       0.00000000       7.61003160
C        0.00000000       0.00000000       1.70909091       0.00000000       0.00000000      -7.61003160
2
Properties=species:S:1:pos:R:3:forces:R:3 energy=-8.36817596921666 pbc="F F F"
C        0.00000000       0.00000000       0.00000000       0.00000000       0.00000000       7.69912100
C        0.00000000       0.00000000       1.76868687       0.00000000       0.00000000      -7.69912100
2
Properties=species:S:1:pos:R:3:forces:R:3 energy=-7.922707294639025 pbc="F F F"
C        0.00000000       0.00000000       0.00000000       0.00000000       0.00000000       7.22673798
C        0.00000000       0.00000000       1.82828283       0.00000000       0.00000000      -7.22673798
2
Properties=species:S:1:pos:R:3:forces:R:3 energy=-7.47983465494744 pbc="F F F"
C        0.00000000       0.00000000       0.00000000       0.00000000       0.00000000       7.65744495
C        0.00000000       0.00000000       1.88787879       0.00000000       0.00000000      -7.65744495
2
Properties=species:S:1:pos:R:3:forces:R:3 energy=-7.019146896774291 pbc="F F F"
C        0.00000000       0.00000000       0.00000000       0.00000000       0.00000000       7.71937704
C        0.00000000       0.00000000       1.94747475       0.00000000       0.00000000      -7.71937704
2
Properties=species:S:1:pos:R:3:forces:R:3 energy=-6.569230333789587 pbc="F F F"
C        0.00000000       0.00000000       0.00000000       0.00000000       0.00000000       7.30227947
C        0.00000000       0.00000000       2.00707071       0.00000000       0.00000000      -7.30227947
2
Properties=species:S:1:pos:R:3:forces:R:3 energy=-6.151606314318282 pbc="F F F"
C        0.00000000       0.00000000       0.00000000       0.00000000       0.00000000       6.74081087
C        0.00000000       0.00000000       2.06666667       0.00000000       0.00000000      -6.74081087
2
Properties=species:S:1:pos:R:3:forces:R:3 energy=-5.7644477992952865 pbc="F F F"
C        0.00000000       0.00000000       0.00000000       0.00000000       0.00000000       6.25290585
C        0.00000000       0.00000000       2.12626263       0.00000000       0.00000000      -6.25290585
2
Properties=species:S:1:pos:R:3:forces:R:3 energy=-5.40598925001543 pbc="F F F"
C        0.00000000       0.00000000       0.00000000       0.00000000       0.00000000       5.75835657
C        0.00000000       0.00000000       2.18585859       0.00000000       0.00000000      -5.75835657
2
Properties=species:S:1:pos:R:3:forces:R:3 energy=-5.081799898190239 pbc="F F F"
C        0.00000000       0.00000000       0.00000000       0.00000000       0.00000000       5.11476612
C        0.00000000       0.00000000       2.24545455       0.00000000       0.00000000      -5.11476612
2
Properties=species:S:1:pos:R:3:forces:R:3 energy=-4.793980895293207 pbc="F F F"
C        0.00000000       0.00000000       0.00000000       0.00000000       0.00000000       4.55914021
C        0.00000000       0.00000000       2.30505051       0.00000000       0.00000000      -4.55914021
2
Properties=species:S:1:pos:R:3:forces:R:3 energy=-4.539186561883727 pbc="F F F"
C        0.00000000       0.00000000       0.00000000       0.00000000       0.00000000       3.97904301
C        0.00000000       0.00000000       2.36464646       0.00000000       0.00000000      -3.97904301
2
Properties=species:S:1:pos:R:3:forces:R:3 energy=-4.319275208780085 pbc="F F F"
C        0.00000000       0.00000000       0.00000000       0.00000000       0.00000000       3.41729927
C        0.00000000       0.00000000       2.42424242       0.00000000       0.00000000      -3.41729927
2
Properties=species:S:1:pos:R:3:forces:R:3 energy=-4.130183927905158 pbc="F F F"
C        0.00000000       0.00000000       0.00000000       0.00000000       0.00000000       2.93286800
C        0.00000000       0.00000000       2.48383838       0.00000000       0.00000000      -2.93286800
2
Properties=species:S:1:pos:R:3:forces:R:3 energy=-3.9702177452313823 pbc="F F F"
C        0.00000000       0.00000000       0.00000000       0.00000000       0.00000000       2.43159890
C        0.00000000       0.00000000       2.54343434       0.00000000       0.00000000      -2.43159890
2
Properties=species:S:1:pos:R:3:forces:R:3 energy=-3.839815203640575 pbc="F F F"
C        0.00000000       0.00000000       0.00000000       0.00000000       0.00000000       1.95513082
C        0.00000000       0.00000000       2.60303030       0.00000000       0.00000000      -1.95513082
2
Properties=species:S:1:pos:R:3:forces:R:3 energy=-3.7357372291764515 pbc="F F F"
C        0.00000000       0.00000000       0.00000000       0.00000000       0.00000000       1.55055487
C        0.00000000       0.00000000       2.66262626       0.00000000       0.00000000      -1.55055487
2
Properties=species:S:1:pos:R:3:forces:R:3 energy=-3.653507865556482 pbc="F F F"
C        0.00000000       0.00000000       0.00000000       0.00000000       0.00000000       1.22045815
C        0.00000000       0.00000000       2.72222222       0.00000000       0.00000000      -1.22045815
2
Properties=species:S:1:pos:R:3:forces:R:3 energy=-3.589020461293513 pbc="F F F"
C        0.00000000       0.00000000       0.00000000       0.00000000       0.00000000       0.95381707
C        0.00000000       0.00000000       2.78181818       0.00000000       0.00000000      -0.95381707
2
Properties=species:S:1:pos:R:3:forces:R:3 energy=-3.538626461193591 pbc="F F F"
C        0.00000000       0.00000000       0.00000000       0.00000000       0.00000000       0.74668962
C        0.00000000       0.00000000       2.84141414       0.00000000       0.00000000      -0.74668962
2
Properties=species:S:1:pos:R:3:forces:R:3 energy=-3.499124063634476 pbc="F F F"
C        0.00000000       0.00000000       0.00000000       0.00000000       0.00000000       0.58470654
C        0.00000000       0.00000000       2.90101010       0.00000000       0.00000000      -0.58470654
2
Properties=species:S:1:pos:R:3:forces:R:3 energy=-3.4683428704389296 pbc="F F F"
C        0.00000000       0.00000000       0.00000000       0.00000000       0.00000000       0.45307606
C        0.00000000       0.00000000       2.96060606       0.00000000       0.00000000      -0.45307606
2
Properties=species:S:1:pos:R:3:forces:R:3 energy=-3.4445183351278614 pbc="F F F"
C        0.00000000       0.00000000       0.00000000       0.00000000       0.00000000       0.35177276
C        0.00000000       0.00000000       3.02020202       0.00000000       0.00000000      -0.35177276
2
Properties=species:S:1:pos:R:3:forces:R:3 energy=-3.425790109639057 pbc="F F F"
C        0.00000000       0.00000000       0.00000000       0.00000000       0.00000000       0.28139773
C        0.00000000       0.00000000       3.07979798       0.00000000       0.00000000      -0.28139773
2
Properties=species:S:1:pos:R:3:forces:R:3 energy=-3.4105587391123566 pbc="F F F"
C        0.00000000       0.00000000       0.00000000       0.00000000       0.00000000       0.23212560
C        0.00000000       0.00000000       3.13939394       0.00000000       0.00000000      -0.23212560
2
Properties=species:S:1:pos:R:3:forces:R:3 energy=-3.3979643398722263 pbc="F F F"
C        0.00000000       0.00000000       0.00000000       0.00000000       0.00000000       0.19108407
C        0.00000000       0.00000000       3.19898990       0.00000000       0.00000000      -0.19108407
2
Properties=species:S:1:pos:R:3:forces:R:3 energy=-3.387757797958157 pbc="F F F"
C        0.00000000       0.00000000       0.00000000       0.00000000       0.00000000       0.15157425
C        0.00000000       0.00000000       3.25858586       0.00000000       0.00000000      -0.15157425
2
Properties=species:S:1:pos:R:3:forces:R:3 energy=-3.379864844927399 pbc="F F F"
C        0.00000000       0.00000000       0.00000000       0.00000000       0.00000000       0.11381379
C        0.00000000       0.00000000       3.31818182       0.00000000       0.00000000      -0.11381379
2
Properties=species:S:1:pos:R:3:forces:R:3 energy=-3.3741065188225723 pbc="F F F"
C        0.00000000       0.00000000       0.00000000       0.00000000       0.00000000       0.08025405
C        0.00000000       0.00000000       3.37777778       0.00000000       0.00000000      -0.08025405
2
Properties=species:S:1:pos:R:3:forces:R:3 energy=-3.3701837976766496 pbc="F F F"
C        0.00000000       0.00000000       0.00000000       0.00000000       0.00000000       0.05240053
C        0.00000000       0.00000000       3.43737374       0.00000000       0.00000000      -0.05240053
2
Properties=species:S:1:pos:R:3:forces:R:3 energy=-3.3677346647486535 pbc="F F F"
C        0.00000000       0.00000000       0.00000000       0.00000000       0.00000000       0.03095167
C        0.00000000       0.00000000       3.49696970       0.00000000       0.00000000      -0.03095167
2
Properties=species:S:1:pos:R:3:forces:R:3 energy=-3.3663645405705878 pbc="F F F"
C        0.00000000       0.00000000       0.00000000       0.00000000       0.00000000       0.01608403
C        0.00000000       0.00000000       3.55656566       0.00000000       0.00000000      -0.01608403
2
Properties=species:S:1:pos:R:3:forces:R:3 energy=-3.365705290377809 pbc="F F F"
C        0.00000000       0.00000000       0.00000000       0.00000000       0.00000000       0.00681126
C        0.00000000       0.00000000       3.61616162       0.00000000       0.00000000      -0.00681126
2
Properties=species:S:1:pos:R:3:forces:R:3 energy=-3.3654837841216785 pbc="F F F"
C        0.00000000       0.00000000       0.00000000       0.00000000       0.00000000       0.00092038
C        0.00000000       0.00000000       3.67575758       0.00000000       0.00000000      -0.00092038
2
Properties=species:S:1:pos:R:3:forces:R:3 energy=-3.3655781117771215 pbc="F F F"
C        0.00000000       0.00000000       0.00000000       0.00000000       0.00000000      -0.00406521
C        0.00000000       0.00000000       3.73535354       0.00000000       0.00000000       0.00406521
2
Properties=species:S:1:pos:R:3:forces:R:3 energy=-3.3659851132744008 pbc="F F F"
C        0.00000000       0.00000000       0.00000000       0.00000000       0.00000000      -0.00979051
C        0.00000000       0.00000000       3.79494949       0.00000000       0.00000000       0.00979051
2
Properties=species:S:1:pos:R:3:forces:R:3 energy=-3.3667679113645623 pbc="F F F"
C        0.00000000       0.00000000       0.00000000       0.00000000       0.00000000      -0.01660763
C        0.00000000       0.00000000       3.85454545       0.00000000       0.00000000       0.01660763
2
Properties=species:S:1:pos:R:3:forces:R:3 energy=-3.3679729340343503 pbc="F F F"
C        0.00000000       0.00000000       0.00000000       0.00000000       0.00000000      -0.02381958
C        0.00000000       0.00000000       3.91414141       0.00000000       0.00000000       0.02381958
2
Properties=species:S:1:pos:R:3:forces:R:3 energy=-3.3695898815677197 pbc="F F F"
C        0.00000000       0.00000000       0.00000000       0.00000000       0.00000000      -0.03027741
C        0.00000000       0.00000000       3.97373737       0.00000000       0.00000000       0.03027741
2
Properties=species:S:1:pos:R:3:forces:R:3 energy=-3.371542234152179 pbc="F F F"
C        0.00000000       0.00000000       0.00000000       0.00000000       0.00000000      -0.03492192
C        0.00000000       0.00000000       4.03333333       0.00000000       0.00000000       0.03492192
2
Properties=species:S:1:pos:R:3:forces:R:3 energy=-3.3737044512786216 pbc="F F F"
C        0.00000000       0.00000000       0.00000000       0.00000000       0.00000000      -0.03708235
C        0.00000000       0.00000000       4.09292929       0.00000000       0.00000000       0.03708235
2
Properties=species:S:1:pos:R:3:forces:R:3 energy=-3.375912515219826 pbc="F F F"
C        0.00000000       0.00000000       0.00000000       0.00000000       0.00000000      -0.03656332
C        0.00000000       0.00000000       4.15252525       0.00000000       0.00000000       0.03656332
2
Properties=species:S:1:pos:R:3:forces:R:3 energy=-3.3780135735720167 pbc="F F F"
C        0.00000000       0.00000000       0.00000000       0.00000000       0.00000000      -0.03362710
C        0.00000000       0.00000000       4.21212121       0.00000000       0.00000000       0.03362710
2
Properties=species:S:1:pos:R:3:forces:R:3 energy=-3.3798850547148396 pbc="F F F"
C        0.00000000       0.00000000       0.00000000       0.00000000       0.00000000      -0.02891229
C        0.00000000       0.00000000       4.27171717       0.00000000       0.00000000       0.02891229
2
Properties=species:S:1:pos:R:3:forces:R:3 energy=-3.381442357790488 pbc="F F F"
C        0.00000000       0.00000000       0.00000000       0.00000000       0.00000000      -0.02330203
C        0.00000000       0.00000000       4.33131313       0.00000000       0.00000000       0.02330203
2
Properties=species:S:1:pos:R:3:forces:R:3 energy=-3.3826617741494336 pbc="F F F"
C        0.00000000       0.00000000       0.00000000       0.00000000       0.00000000      -0.01773214
C        0.00000000       0.00000000       4.39090909       0.00000000       0.00000000       0.01773214
2
Properties=species:S:1:pos:R:3:forces:R:3 energy=-3.3835719470471717 pbc="F F F"
C        0.00000000       0.00000000       0.00000000       0.00000000       0.00000000      -0.01297660
C        0.00000000       0.00000000       4.45050505       0.00000000       0.00000000       0.01297660
2
Properties=species:S:1:pos:R:3:forces:R:3 energy=-3.38423482983612 pbc="F F F"
C        0.00000000       0.00000000       0.00000000       0.00000000       0.00000000      -0.00948135
C        0.00000000       0.00000000       4.51010101       0.00000000       0.00000000       0.00948135
2
Properties=species:S:1:pos:R:3:forces:R:3 energy=-3.384727587536404 pbc="F F F"
C        0.00000000       0.00000000       0.00000000       0.00000000       0.00000000      -0.00730010
C        0.00000000       0.00000000       4.56969697       0.00000000       0.00000000       0.00730010
2
Properties=species:S:1:pos:R:3:forces:R:3 energy=-3.385125471087893 pbc="F F F"
C        0.00000000       0.00000000       0.00000000       0.00000000       0.00000000      -0.00615723
C        0.00000000       0.00000000       4.62929293       0.00000000       0.00000000       0.00615723
2
Properties=species:S:1:pos:R:3:forces:R:3 energy=-3.38547225245645 pbc="F F F"
C        0.00000000       0.00000000       0.00000000       0.00000000       0.00000000      -0.00560449
C        0.00000000       0.00000000       4.68888889       0.00000000       0.00000000       0.00560449
2
Properties=species:S:1:pos:R:3:forces:R:3 energy=-3.385795513517303 pbc="F F F"
C        0.00000000       0.00000000       0.00000000       0.00000000       0.00000000      -0.00520313
C        0.00000000       0.00000000       4.74848485       0.00000000       0.00000000       0.00520313
2
Properties=species:S:1:pos:R:3:forces:R:3 energy=-3.386089474967626 pbc="F F F"
C        0.00000000       0.00000000       0.00000000       0.00000000       0.00000000      -0.00465507
C        0.00000000       0.00000000       4.80808081       0.00000000       0.00000000       0.00465507
2
Properties=species:S:1:pos:R:3:forces:R:3 energy=-3.386348401854104 pbc="F F F"
C        0.00000000       0.00000000       0.00000000       0.00000000       0.00000000      -0.00385002
C        0.00000000       0.00000000       4.86767677       0.00000000       0.00000000       0.00385002
2
Properties=species:S:1:pos:R:3:forces:R:3 energy=-3.3865475227610164 pbc="F F F"
C        0.00000000       0.00000000       0.00000000       0.00000000       0.00000000      -0.00282663
C        0.00000000       0.00000000       4.92727273       0.00000000       0.00000000       0.00282663
2
Properties=species:S:1:pos:R:3:forces:R:3 energy=-3.3866783248674297 pbc="F F F"
C        0.00000000       0.00000000       0.00000000       0.00000000       0.00000000      -0.00169254
C        0.00000000       0.00000000       4.98686869       0.00000000       0.00000000       0.00169254
2
Properties=species:S:1:pos:R:3:forces:R:3 energy=-3.386745696092073 pbc="F F F"
C        0.00000000       0.00000000       0.00000000       0.00000000       0.00000000      -0.00054726
C        0.00000000       0.00000000       5.04646465       0.00000000       0.00000000       0.00054726
2
Properties=species:S:1:pos:R:3:forces:R:3 energy=-3.3867459832584714 pbc="F F F"
C        0.00000000       0.00000000       0.00000000       0.00000000       0.00000000       0.00055218
C        0.00000000       0.00000000       5.10606061       0.00000000       0.00000000      -0.00055218
2
Properties=species:S:1:pos:R:3:forces:R:3 energy=-3.3866822635552967 pbc="F F F"
C        0.00000000       0.00000000       0.00000000       0.00000000       0.00000000       0.00159003
C        0.00000000       0.00000000       5.16565657       0.00000000       0.00000000      -0.00159003
2
Properties=species:S:1:pos:R:3:forces:R:3 energy=-3.3865605212265857 pbc="F F F"
C        0.00000000       0.00000000       0.00000000       0.00000000       0.00000000       0.00255958
C        0.00000000       0.00000000       5.22525253       0.00000000       0.00000000      -0.00255958
2
Properties=species:S:1:pos:R:3:forces:R:3 energy=-3.3863772477267426 pbc="F F F"
C        0.00000000       0.00000000       0.00000000       0.00000000       0.00000000       0.00343427
C        0.00000000       0.00000000       5.28484848       0.00000000       0.00000000      -0.00343427
2
Properties=species:S:1:pos:R:3:forces:R:3 energy=-3.3861518699141153 pbc="F F F"
C        0.00000000       0.00000000       0.00000000       0.00000000       0.00000000       0.00415591
C        0.00000000       0.00000000       5.34444444       0.00000000       0.00000000      -0.00415591
2
Properties=species:S:1:pos:R:3:forces:R:3 energy=-3.3858895497240487 pbc="F F F"
C        0.00000000       0.00000000       0.00000000       0.00000000       0.00000000       0.00464709
C        0.00000000       0.00000000       5.40404040       0.00000000       0.00000000      -0.00464709
2
Properties=species:S:1:pos:R:3:forces:R:3 energy=-3.3856040749263348 pbc="F F F"
C        0.00000000       0.00000000       0.00000000       0.00000000       0.00000000       0.00483802
C        0.00000000       0.00000000       5.46363636       0.00000000       0.00000000      -0.00483802
2
Properties=species:S:1:pos:R:3:forces:R:3 energy=-3.3853188059689105 pbc="F F F"
C        0.00000000       0.00000000       0.00000000       0.00000000       0.00000000       0.00469599
C        0.00000000       0.00000000       5.52323232       0.00000000       0.00000000      -0.00469599
2
Properties=species:S:1:pos:R:3:forces:R:3 energy=-3.385049512414022 pbc="F F F"
C        0.00000000       0.00000000       0.00000000       0.00000000       0.00000000       0.00424405
C        0.00000000       0.00000000       5.58282828       0.00000000       0.00000000      -0.00424405
2
Properties=species:S:1:pos:R:3:forces:R:3 energy=-3.384817715964122 pbc="F F F"
C        0.00000000       0.00000000       0.00000000       0.00000000       0.00000000       0.00356287
C        0.00000000       0.00000000       5.64242424       0.00000000       0.00000000      -0.00356287
2
Properties=species:S:1:pos:R:3:forces:R:3 energy=-3.3846278055450965 pbc="F F F"
C        0.00000000       0.00000000       0.00000000       0.00000000       0.00000000       0.00277475
C        0.00000000       0.00000000       5.70202020       0.00000000       0.00000000      -0.00277475
2
Properties=species:S:1:pos:R:3:forces:R:3 energy=-3.3844861067338186 pbc="F F F"
C        0.00000000       0.00000000       0.00000000       0.00000000       0.00000000       0.00201589
C        0.00000000       0.00000000       5.76161616       0.00000000       0.00000000      -0.00201589
2
Properties=species:S:1:pos:R:3:forces:R:3 energy=-3.384383712056653 pbc="F F F"
C        0.00000000       0.00000000       0.00000000       0.00000000       0.00000000       0.00140113
C        0.00000000       0.00000000       5.82121212       0.00000000       0.00000000      -0.00140113
2
Properties=species:S:1:pos:R:3:forces:R:3 energy=-3.3843155546737753 pbc="F F F"
C        0.00000000       0.00000000       0.00000000       0.00000000       0.00000000       0.00099568
C        0.00000000       0.00000000       5.88080808       0.00000000       0.00000000      -0.00099568
2
Properties=species:S:1:pos:R:3:forces:R:3 energy=-3.384262285349839 pbc="F F F"
C        0.00000000       0.00000000       0.00000000       0.00000000       0.00000000       0.00079302
C        0.00000000       0.00000000       5.94040404       0.00000000       0.00000000      -0.00079302
2
Properties=species:S:1:pos:R:3:forces:R:3 energy=-3.3842179278212177 pbc="F F F"
C        0.00000000       0.00000000       0.00000000       0.00000000       0.00000000       0.00071887
C        0.00000000       0.00000000       6.00000000       0.00000000       0.00000000      -0.00071887
