2
Properties=species:S:1:pos:R:3:forces:R:3 energy=-3055634.0245239674 pbc="F F F"
Ce       0.00000000       0.00000000       0.00000000       0.00000000       0.00000000 13533012.00000000
Ce       0.00000000       0.00000000       0.10000000       0.00000000       0.00000000 -13533012.00000000
2
Properties=species:S:1:pos:R:3:forces:R:3 energy=-2144145.5245239674 pbc="F F F"
Ce       0.00000000       0.00000000       0.00000000       0.00000000       0.00000000 16278282.00000000
Ce       0.00000000       0.00000000       0.15959596       0.00000000       0.00000000 -16278282.00000000
2
Properties=species:S:1:pos:R:3:forces:R:3 energy=-1264909.5245239676 pbc="F F F"
Ce       0.00000000       0.00000000       0.00000000       0.00000000       0.00000000 13429252.00000000
Ce       0.00000000       0.00000000       0.21919192       0.00000000       0.00000000 -13429252.00000000
2
Properties=species:S:1:pos:R:3:forces:R:3 energy=-588888.2745239676 pbc="F F F"
Ce       0.00000000       0.00000000       0.00000000       0.00000000       0.00000000 9011701.00000000
Ce       0.00000000       0.00000000       0.27878788       0.00000000       0.00000000 -9011701.00000000
2
Properties=species:S:1:pos:R:3:forces:R:3 energy=-194148.6026489676 pbc="F F F"
Ce       0.00000000       0.00000000       0.00000000       0.00000000       0.00000000 4385657.50000000
Ce       0.00000000       0.00000000       0.33838384       0.00000000       0.00000000 -4385657.50000000
2
Properties=species:S:1:pos:R:3:forces:R:3 energy=-38778.39171146759 pbc="F F F"
Ce       0.00000000       0.00000000       0.00000000       0.00000000       0.00000000 1352659.12500000
Ce       0.00000000       0.00000000       0.39797980       0.00000000       0.00000000 -1352659.12500000
2
Properties=species:S:1:pos:R:3:forces:R:3 energy=-2075.614855997257 pbc="F F F"
Ce       0.00000000       0.00000000       0.00000000       0.00000000       0.00000000  153650.76562500
Ce       0.00000000       0.00000000       0.45757576       0.00000000       0.00000000 -153650.76562500
2
Properties=species:S:1:pos:R:3:forces:R:3 energy=34.41904903362362 pbc="F F F"
Ce       0.00000000       0.00000000       0.00000000       0.00000000       0.00000000    -882.99676514
Ce       0.00000000       0.00000000       0.51717172       0.00000000       0.00000000     882.99676514
2
Properties=species:S:1:pos:R:3:forces:R:3 energy=378.6497924481624 pbc="F F F"
Ce       0.00000000       0.00000000       0.00000000       0.00000000       0.00000000    -210.91510010
Ce       0.00000000       0.00000000       0.57676768       0.00000000       0.00000000     210.91510010
2
Properties=species:S:1:pos:R:3:forces:R:3 energy=92.68086697842381 pbc="F F F"
Ce       0.00000000       0.00000000       0.00000000       0.00000000       0.00000000   -3802.49536133
Ce       0.00000000       0.00000000       0.63636364       0.00000000       0.00000000    3802.49536133
2
Properties=species:S:1:pos:R:3:forces:R:3 energy=-9.373116698843301 pbc="F F F"
Ce       0.00000000       0.00000000       0.00000000       0.00000000       0.00000000    -480.14093018
Ce       0.00000000       0.00000000       0.69595960       0.00000000       0.00000000     480.14093018
2
Properties=species:S:1:pos:R:3:forces:R:3 energy=-17.214747618673137 pbc="F F F"
Ce       0.00000000       0.00000000       0.00000000       0.00000000       0.00000000       3.40232968
Ce       0.00000000       0.00000000       0.75555556       0.00000000       0.00000000      -3.40232968
2
Properties=species:S:1:pos:R:3:forces:R:3 energy=-15.387677358708414 pbc="F F F"
Ce       0.00000000       0.00000000       0.00000000       0.00000000       0.00000000      34.18167877
Ce       0.00000000       0.00000000       0.81515152       0.00000000       0.00000000     -34.18167877
2
Properties=species:S:1:pos:R:3:forces:R:3 energy=-14.825714240918597 pbc="F F F"
Ce       0.00000000       0.00000000       0.00000000       0.00000000       0.00000000      16.92929459
Ce       0.00000000       0.00000000       0.87474747       0.00000000       0.00000000     -16.92929459
2
Properties=species:S:1:pos:R:3:forces:R:3 energy=-12.60187728984582 pbc="F F F"
Ce       0.00000000       0.00000000       0.00000000       0.00000000       0.00000000      45.47888565
Ce       0.00000000       0.00000000       0.93434343       0.00000000       0.00000000     -45.47888565
2
Properties=species:S:1:pos:R:3:forces:R:3 energy=-9.444020278930589 pbc="F F F"
Ce       0.00000000       0.00000000       0.00000000       0.00000000       0.00000000      65.06736755
Ce       0.00000000       0.00000000       0.99393939       0.00000000       0.00000000     -65.06736755
2
Properties=species:S:1:pos:R:3:forces:R:3 energy=-5.05969897112737 pbc="F F F"
Ce       0.00000000       0.00000000       0.00000000       0.00000000       0.00000000      71.96413422
Ce       0.00000000       0.00000000       1.05353535       0.00000000       0.00000000     -71.96413422
2
Properties=species:S:1:pos:R:3:forces:R:3 energy=-1.26910283294588 pbc="F F F"
Ce       0.00000000       0.00000000       0.00000000       0.00000000       0.00000000      63.52512741
Ce       0.00000000       0.00000000       1.11313131       0.00000000       0.00000000     -63.52512741
2
Properties=species:S:1:pos:R:3:forces:R:3 energy=2.269429592028772 pbc="F F F"
Ce       0.00000000       0.00000000       0.00000000       0.00000000       0.00000000      37.43527222
Ce       0.00000000       0.00000000       1.17272727       0.00000000       0.00000000     -37.43527222
2
Properties=species:S:1:pos:R:3:forces:R:3 energy=6.39388049420225 pbc="F F F"
Ce       0.00000000       0.00000000       0.00000000       0.00000000       0.00000000      95.49076843
Ce       0.00000000       0.00000000       1.23232323       0.00000000       0.00000000     -95.49076843
2
Properties=species:S:1:pos:R:3:forces:R:3 energy=9.930484703750725 pbc="F F F"
Ce       0.00000000       0.00000000       0.00000000       0.00000000       0.00000000      24.93386650
Ce       0.00000000       0.00000000       1.29191919       0.00000000       0.00000000     -24.93386650
2
Properties=species:S:1:pos:R:3:forces:R:3 energy=10.516868881294707 pbc="F F F"
Ce       0.00000000       0.00000000       0.00000000       0.00000000       0.00000000       0.62749296
Ce       0.00000000       0.00000000       1.35151515       0.00000000       0.00000000      -0.62749296
2
Properties=species:S:1:pos:R:3:forces:R:3 energy=10.025881553415491 pbc="F F F"
Ce       0.00000000       0.00000000       0.00000000       0.00000000       0.00000000     -17.62012863
Ce       0.00000000       0.00000000       1.41111111       0.00000000       0.00000000      17.62012863
2
Properties=species:S:1:pos:R:3:forces:R:3 energy=8.762847290395548 pbc="F F F"
Ce       0.00000000       0.00000000       0.00000000       0.00000000       0.00000000     -20.24502754
Ce       0.00000000       0.00000000       1.47070707       0.00000000       0.00000000      20.24502754
2
Properties=species:S:1:pos:R:3:forces:R:3 energy=7.8733979093225 pbc="F F F"
Ce       0.00000000       0.00000000       0.00000000       0.00000000       0.00000000     -10.90600586
Ce       0.00000000       0.00000000       1.53030303       0.00000000       0.00000000      10.90600586
2
Properties=species:S:1:pos:R:3:forces:R:3 energy=7.303059553834065 pbc="F F F"
Ce       0.00000000       0.00000000       0.00000000       0.00000000       0.00000000      -9.48384762
Ce       0.00000000       0.00000000       1.58989899       0.00000000       0.00000000       9.48384762
2
Properties=species:S:1:pos:R:3:forces:R:3 energy=6.662147576900531 pbc="F F F"
Ce       0.00000000       0.00000000       0.00000000       0.00000000       0.00000000     -12.09824181
Ce       0.00000000       0.00000000       1.64949495       0.00000000       0.00000000      12.09824181
2
Properties=species:S:1:pos:R:3:forces:R:3 energy=5.710074777286959 pbc="F F F"
Ce       0.00000000       0.00000000       0.00000000       0.00000000       0.00000000     -20.84074402
Ce       0.00000000       0.00000000       1.70909091       0.00000000       0.00000000      20.84074402
2
Properties=species:S:1:pos:R:3:forces:R:3 energy=4.28427785952914 pbc="F F F"
Ce       0.00000000       0.00000000       0.00000000       0.00000000       0.00000000     -25.96554375
Ce       0.00000000       0.00000000       1.76868687       0.00000000       0.00000000      25.96554375
2
Properties=species:S:1:pos:R:3:forces:R:3 energy=2.6545894885640338 pbc="F F F"
Ce       0.00000000       0.00000000       0.00000000       0.00000000       0.00000000     -28.56362343
Ce       0.00000000       0.00000000       1.82828283       0.00000000       0.00000000      28.56362343
2
Properties=species:S:1:pos:R:3:forces:R:3 energy=0.9036551170813617 pbc="F F F"
Ce       0.00000000       0.00000000       0.00000000       0.00000000       0.00000000     -29.83110046
Ce       0.00000000       0.00000000       1.88787879       0.00000000       0.00000000      29.83110046
2
Properties=species:S:1:pos:R:3:forces:R:3 energy=-0.850059779065827 pbc="F F F"
Ce       0.00000000       0.00000000       0.00000000       0.00000000       0.00000000     -28.41960144
Ce       0.00000000       0.00000000       1.94747475       0.00000000       0.00000000      28.41960144
2
Properties=species:S:1:pos:R:3:forces:R:3 energy=-2.4293681721626172 pbc="F F F"
Ce       0.00000000       0.00000000       0.00000000       0.00000000       0.00000000     -24.35962868
Ce       0.00000000       0.00000000       2.00707071       0.00000000       0.00000000      24.35962868
2
Properties=species:S:1:pos:R:3:forces:R:3 energy=-3.755285736709573 pbc="F F F"
Ce       0.00000000       0.00000000       0.00000000       0.00000000       0.00000000     -20.09445572
Ce       0.00000000       0.00000000       2.06666667       0.00000000       0.00000000      20.09445572
2
Properties=species:S:1:pos:R:3:forces:R:3 energy=-4.801177233031697 pbc="F F F"
Ce       0.00000000       0.00000000       0.00000000       0.00000000       0.00000000     -14.92945576
Ce       0.00000000       0.00000000       2.12626263       0.00000000       0.00000000      14.92945576
2
Properties=species:S:1:pos:R:3:forces:R:3 energy=-5.556705706017909 pbc="F F F"
Ce       0.00000000       0.00000000       0.00000000       0.00000000       0.00000000     -10.68897820
Ce       0.00000000       0.00000000       2.18585859       0.00000000       0.00000000      10.68897820
2
Properties=species:S:1:pos:R:3:forces:R:3 energy=-6.09030864009531 pbc="F F F"
Ce       0.00000000       0.00000000       0.00000000       0.00000000       0.00000000      -7.29435492
Ce       0.00000000       0.00000000       2.24545455       0.00000000       0.00000000       7.29435492
2
Properties=species:S:1:pos:R:3:forces:R:3 energy=-6.442118459644424 pbc="F F F"
Ce       0.00000000       0.00000000       0.00000000       0.00000000       0.00000000      -4.64244413
Ce       0.00000000       0.00000000       2.30505051       0.00000000       0.00000000       4.64244413
2
Properties=species:S:1:pos:R:3:forces:R:3 energy=-6.653361450318865 pbc="F F F"
Ce       0.00000000       0.00000000       0.00000000       0.00000000       0.00000000      -2.51703191
Ce       0.00000000       0.00000000       2.36464646       0.00000000       0.00000000       2.51703191
2
Properties=species:S:1:pos:R:3:forces:R:3 energy=-6.752538043935461 pbc="F F F"
Ce       0.00000000       0.00000000       0.00000000       0.00000000       0.00000000      -0.89672810
Ce       0.00000000       0.00000000       2.42424242       0.00000000       0.00000000       0.89672810
2
Properties=species:S:1:pos:R:3:forces:R:3 energy=-6.769099484020583 pbc="F F F"
Ce       0.00000000       0.00000000       0.00000000       0.00000000       0.00000000       0.27453014
Ce       0.00000000       0.00000000       2.48383838       0.00000000       0.00000000      -0.27453014
2
Properties=species:S:1:pos:R:3:forces:R:3 energy=-6.7266967510691105 pbc="F F F"
Ce       0.00000000       0.00000000       0.00000000       0.00000000       0.00000000       1.09352100
Ce       0.00000000       0.00000000       2.54343434       0.00000000       0.00000000      -1.09352100
2
Properties=species:S:1:pos:R:3:forces:R:3 energy=-6.6461627021318295 pbc="F F F"
Ce       0.00000000       0.00000000       0.00000000       0.00000000       0.00000000       1.54303908
Ce       0.00000000       0.00000000       2.60303030       0.00000000       0.00000000      -1.54303908
2
Properties=species:S:1:pos:R:3:forces:R:3 energy=-6.5496176514188535 pbc="F F F"
Ce       0.00000000       0.00000000       0.00000000       0.00000000       0.00000000       1.65436327
Ce       0.00000000       0.00000000       2.66262626       0.00000000       0.00000000      -1.65436327
2
Properties=species:S:1:pos:R:3:forces:R:3 energy=-6.452166657942324 pbc="F F F"
Ce       0.00000000       0.00000000       0.00000000       0.00000000       0.00000000       1.60173142
Ce       0.00000000       0.00000000       2.72222222       0.00000000       0.00000000      -1.60173142
2
Properties=species:S:1:pos:R:3:forces:R:3 energy=-6.359715625587038 pbc="F F F"
Ce       0.00000000       0.00000000       0.00000000       0.00000000       0.00000000       1.49479902
Ce       0.00000000       0.00000000       2.78181818       0.00000000       0.00000000      -1.49479902
2
Properties=species:S:1:pos:R:3:forces:R:3 energy=-6.274728638126416 pbc="F F F"
Ce       0.00000000       0.00000000       0.00000000       0.00000000       0.00000000       1.35084009
Ce       0.00000000       0.00000000       2.84141414       0.00000000       0.00000000      -1.35084009
2
Properties=species:S:1:pos:R:3:forces:R:3 energy=-6.199465667687591 pbc="F F F"
Ce       0.00000000       0.00000000       0.00000000       0.00000000       0.00000000       1.16941166
Ce       0.00000000       0.00000000       2.90101010       0.00000000       0.00000000      -1.16941166
2
Properties=species:S:1:pos:R:3:forces:R:3 energy=-6.135753707170671 pbc="F F F"
Ce       0.00000000       0.00000000       0.00000000       0.00000000       0.00000000       0.96807766
Ce       0.00000000       0.00000000       2.96060606       0.00000000       0.00000000      -0.96807766
2
Properties=species:S:1:pos:R:3:forces:R:3 energy=-6.083795618356255 pbc="F F F"
Ce       0.00000000       0.00000000       0.00000000       0.00000000       0.00000000       0.78011411
Ce       0.00000000       0.00000000       3.02020202       0.00000000       0.00000000      -0.78011411
2
Properties=species:S:1:pos:R:3:forces:R:3 energy=-6.042262644649775 pbc="F F F"
Ce       0.00000000       0.00000000       0.00000000       0.00000000       0.00000000       0.61643279
Ce       0.00000000       0.00000000       3.07979798       0.00000000       0.00000000      -0.61643279
2
Properties=species:S:1:pos:R:3:forces:R:3 energy=-6.010253254959568 pbc="F F F"
Ce       0.00000000       0.00000000       0.00000000       0.00000000       0.00000000       0.45682991
Ce       0.00000000       0.00000000       3.13939394       0.00000000       0.00000000      -0.45682991
2
Properties=species:S:1:pos:R:3:forces:R:3 energy=-5.987893009593628 pbc="F F F"
Ce       0.00000000       0.00000000       0.00000000       0.00000000       0.00000000       0.29387343
Ce       0.00000000       0.00000000       3.19898990       0.00000000       0.00000000      -0.29387343
2
Properties=species:S:1:pos:R:3:forces:R:3 energy=-5.975015614424819 pbc="F F F"
Ce       0.00000000       0.00000000       0.00000000       0.00000000       0.00000000       0.14151630
Ce       0.00000000       0.00000000       3.25858586       0.00000000       0.00000000      -0.14151630
2
Properties=species:S:1:pos:R:3:forces:R:3 energy=-5.970531607500351 pbc="F F F"
Ce       0.00000000       0.00000000       0.00000000       0.00000000       0.00000000       0.01371708
Ce       0.00000000       0.00000000       3.31818182       0.00000000       0.00000000      -0.01371708
2
Properties=species:S:1:pos:R:3:forces:R:3 energy=-5.9727935972980175 pbc="F F F"
Ce       0.00000000       0.00000000       0.00000000       0.00000000       0.00000000      -0.08478973
Ce       0.00000000       0.00000000       3.37777778       0.00000000       0.00000000       0.08478973
2
Properties=species:S:1:pos:R:3:forces:R:3 energy=-5.98010363330165 pbc="F F F"
Ce       0.00000000       0.00000000       0.00000000       0.00000000       0.00000000      -0.15638426
Ce       0.00000000       0.00000000       3.43737374       0.00000000       0.00000000       0.15638426
2
Properties=species:S:1:pos:R:3:forces:R:3 energy=-5.990943987266122 pbc="F F F"
Ce       0.00000000       0.00000000       0.00000000       0.00000000       0.00000000      -0.20330420
Ce       0.00000000       0.00000000       3.49696970       0.00000000       0.00000000       0.20330420
2
Properties=species:S:1:pos:R:3:forces:R:3 energy=-6.003847453510322 pbc="F F F"
Ce       0.00000000       0.00000000       0.00000000       0.00000000       0.00000000      -0.22567594
Ce       0.00000000       0.00000000       3.55656566       0.00000000       0.00000000       0.22567594
2
Properties=species:S:1:pos:R:3:forces:R:3 energy=-6.017386863251407 pbc="F F F"
Ce       0.00000000       0.00000000       0.00000000       0.00000000       0.00000000      -0.22532928
Ce       0.00000000       0.00000000       3.61616162       0.00000000       0.00000000       0.22532928
2
Properties=species:S:1:pos:R:3:forces:R:3 energy=-6.0303543706245515 pbc="F F F"
Ce       0.00000000       0.00000000       0.00000000       0.00000000       0.00000000      -0.20743939
Ce       0.00000000       0.00000000       3.67575758       0.00000000       0.00000000       0.20743939
2
Properties=species:S:1:pos:R:3:forces:R:3 energy=-6.041891165061267 pbc="F F F"
Ce       0.00000000       0.00000000       0.00000000       0.00000000       0.00000000      -0.17833412
Ce       0.00000000       0.00000000       3.73535354       0.00000000       0.00000000       0.17833412
2
Properties=species:S:1:pos:R:3:forces:R:3 energy=-6.05148841862808 pbc="F F F"
Ce       0.00000000       0.00000000       0.00000000       0.00000000       0.00000000      -0.14297438
Ce       0.00000000       0.00000000       3.79494949       0.00000000       0.00000000       0.14297438
2
Properties=species:S:1:pos:R:3:forces:R:3 energy=-6.05886711989483 pbc="F F F"
Ce       0.00000000       0.00000000       0.00000000       0.00000000       0.00000000      -0.10420435
Ce       0.00000000       0.00000000       3.85454545       0.00000000       0.00000000       0.10420435
2
Properties=species:S:1:pos:R:3:forces:R:3 energy=-6.063869380405194 pbc="F F F"
Ce       0.00000000       0.00000000       0.00000000       0.00000000       0.00000000      -0.06338098
Ce       0.00000000       0.00000000       3.91414141       0.00000000       0.00000000       0.06338098
2
Properties=species:S:1:pos:R:3:forces:R:3 energy=-6.066395460493564 pbc="F F F"
Ce       0.00000000       0.00000000       0.00000000       0.00000000       0.00000000      -0.02129960
Ce       0.00000000       0.00000000       3.97373737       0.00000000       0.00000000       0.02129960
2
Properties=species:S:1:pos:R:3:forces:R:3 energy=-6.066399045262989 pbc="F F F"
Ce       0.00000000       0.00000000       0.00000000       0.00000000       0.00000000       0.02122247
Ce       0.00000000       0.00000000       4.03333333       0.00000000       0.00000000      -0.02122247
2
Properties=species:S:1:pos:R:3:forces:R:3 energy=-6.0638757767347045 pbc="F F F"
Ce       0.00000000       0.00000000       0.00000000       0.00000000       0.00000000       0.06317827
Ce       0.00000000       0.00000000       4.09292929       0.00000000       0.00000000      -0.06317827
2
Properties=species:S:1:pos:R:3:forces:R:3 energy=-6.0589004614016755 pbc="F F F"
Ce       0.00000000       0.00000000       0.00000000       0.00000000       0.00000000       0.10340005
Ce       0.00000000       0.00000000       4.15252525       0.00000000       0.00000000      -0.10340005
2
Properties=species:S:1:pos:R:3:forces:R:3 energy=-6.051611820942997 pbc="F F F"
Ce       0.00000000       0.00000000       0.00000000       0.00000000       0.00000000       0.14064771
Ce       0.00000000       0.00000000       4.21212121       0.00000000       0.00000000      -0.14064771
2
Properties=species:S:1:pos:R:3:forces:R:3 energy=-6.042220118450608 pbc="F F F"
Ce       0.00000000       0.00000000       0.00000000       0.00000000       0.00000000       0.17371964
Ce       0.00000000       0.00000000       4.27171717       0.00000000       0.00000000      -0.17371964
2
Properties=species:S:1:pos:R:3:forces:R:3 energy=-6.031009092704407 pbc="F F F"
Ce       0.00000000       0.00000000       0.00000000       0.00000000       0.00000000       0.20161872
Ce       0.00000000       0.00000000       4.33131313       0.00000000       0.00000000      -0.20161872
2
Properties=species:S:1:pos:R:3:forces:R:3 energy=-6.018304471080704 pbc="F F F"
Ce       0.00000000       0.00000000       0.00000000       0.00000000       0.00000000       0.22374529
Ce       0.00000000       0.00000000       4.39090909       0.00000000       0.00000000      -0.22374529
2
Properties=species:S:1:pos:R:3:forces:R:3 energy=-6.004456824005368 pbc="F F F"
Ce       0.00000000       0.00000000       0.00000000       0.00000000       0.00000000       0.24004130
Ce       0.00000000       0.00000000       4.45050505       0.00000000       0.00000000      -0.24004130
2
Properties=species:S:1:pos:R:3:forces:R:3 energy=-5.989800574381243 pbc="F F F"
Ce       0.00000000       0.00000000       0.00000000       0.00000000       0.00000000       0.25097686
Ce       0.00000000       0.00000000       4.51010101       0.00000000       0.00000000      -0.25097686
2
Properties=species:S:1:pos:R:3:forces:R:3 energy=-5.974629184632899 pbc="F F F"
Ce       0.00000000       0.00000000       0.00000000       0.00000000       0.00000000       0.25741962
Ce       0.00000000       0.00000000       4.56969697       0.00000000       0.00000000      -0.25741962
2
Properties=species:S:1:pos:R:3:forces:R:3 energy=-5.959187568493791 pbc="F F F"
Ce       0.00000000       0.00000000       0.00000000       0.00000000       0.00000000       0.26041922
Ce       0.00000000       0.00000000       4.62929293       0.00000000       0.00000000      -0.26041922
2
Properties=species:S:1:pos:R:3:forces:R:3 energy=-5.943638698149981 pbc="F F F"
Ce       0.00000000       0.00000000       0.00000000       0.00000000       0.00000000       0.26099423
Ce       0.00000000       0.00000000       4.68888889       0.00000000       0.00000000      -0.26099423
2
Properties=species:S:1:pos:R:3:forces:R:3 energy=-5.928107492265631 pbc="F F F"
Ce       0.00000000       0.00000000       0.00000000       0.00000000       0.00000000       0.25998506
Ce       0.00000000       0.00000000       4.74848485       0.00000000       0.00000000      -0.25998506
2
Properties=species:S:1:pos:R:3:forces:R:3 energy=-5.912671274488101 pbc="F F F"
Ce       0.00000000       0.00000000       0.00000000       0.00000000       0.00000000       0.25799572
Ce       0.00000000       0.00000000       4.80808081       0.00000000       0.00000000      -0.25799572
2
Properties=species:S:1:pos:R:3:forces:R:3 energy=-5.897369330781959 pbc="F F F"
Ce       0.00000000       0.00000000       0.00000000       0.00000000       0.00000000       0.25536910
Ce       0.00000000       0.00000000       4.86767677       0.00000000       0.00000000      -0.25536910
2
Properties=species:S:1:pos:R:3:forces:R:3 energy=-5.8822429700859145 pbc="F F F"
Ce       0.00000000       0.00000000       0.00000000       0.00000000       0.00000000       0.25222060
Ce       0.00000000       0.00000000       4.92727273       0.00000000       0.00000000      -0.25222060
2
Properties=species:S:1:pos:R:3:forces:R:3 energy=-5.8673212081106945 pbc="F F F"
Ce       0.00000000       0.00000000       0.00000000       0.00000000       0.00000000       0.24842343
Ce       0.00000000       0.00000000       4.98686869       0.00000000       0.00000000      -0.24842343
2
Properties=species:S:1:pos:R:3:forces:R:3 energy=-5.852653214440558 pbc="F F F"
Ce       0.00000000       0.00000000       0.00000000       0.00000000       0.00000000       0.24363132
Ce       0.00000000       0.00000000       5.04646465       0.00000000       0.00000000      -0.24363132
2
Properties=species:S:1:pos:R:3:forces:R:3 energy=-5.838313052394474 pbc="F F F"
Ce       0.00000000       0.00000000       0.00000000       0.00000000       0.00000000       0.23729685
Ce       0.00000000       0.00000000       5.10606061       0.00000000       0.00000000      -0.23729685
2
Properties=species:S:1:pos:R:3:forces:R:3 energy=-5.824411154796145 pbc="F F F"
Ce       0.00000000       0.00000000       0.00000000       0.00000000       0.00000000       0.22875533
Ce       0.00000000       0.00000000       5.16565657       0.00000000       0.00000000      -0.22875533
2
Properties=species:S:1:pos:R:3:forces:R:3 energy=-5.811102884868098 pbc="F F F"
Ce       0.00000000       0.00000000       0.00000000       0.00000000       0.00000000       0.21734311
Ce       0.00000000       0.00000000       5.22525253       0.00000000       0.00000000      -0.21734311
2
Properties=species:S:1:pos:R:3:forces:R:3 energy=-5.7985751689521425 pbc="F F F"
Ce       0.00000000       0.00000000       0.00000000       0.00000000       0.00000000       0.20254928
Ce       0.00000000       0.00000000       5.28484848       0.00000000       0.00000000      -0.20254928
2
Properties=species:S:1:pos:R:3:forces:R:3 energy=-5.787033160908054 pbc="F F F"
Ce       0.00000000       0.00000000       0.00000000       0.00000000       0.00000000       0.18419686
Ce       0.00000000       0.00000000       5.34444444       0.00000000       0.00000000      -0.18419686
2
Properties=species:S:1:pos:R:3:forces:R:3 energy=-5.776684950062377 pbc="F F F"
Ce       0.00000000       0.00000000       0.00000000       0.00000000       0.00000000       0.16254488
Ce       0.00000000       0.00000000       5.40404040       0.00000000       0.00000000      -0.16254488
2
Properties=species:S:1:pos:R:3:forces:R:3 energy=-5.767708184191261 pbc="F F F"
Ce       0.00000000       0.00000000       0.00000000       0.00000000       0.00000000       0.13834952
Ce       0.00000000       0.00000000       5.46363636       0.00000000       0.00000000      -0.13834952
2
Properties=species:S:1:pos:R:3:forces:R:3 energy=-5.760223344464851 pbc="F F F"
Ce       0.00000000       0.00000000       0.00000000       0.00000000       0.00000000       0.11281727
Ce       0.00000000       0.00000000       5.52323232       0.00000000       0.00000000      -0.11281727
2
Properties=species:S:1:pos:R:3:forces:R:3 energy=-5.754260362094475 pbc="F F F"
Ce       0.00000000       0.00000000       0.00000000       0.00000000       0.00000000       0.08745345
Ce       0.00000000       0.00000000       5.58282828       0.00000000       0.00000000      -0.08745345
2
Properties=species:S:1:pos:R:3:forces:R:3 energy=-5.749761441341727 pbc="F F F"
Ce       0.00000000       0.00000000       0.00000000       0.00000000       0.00000000       0.06388380
Ce       0.00000000       0.00000000       5.64242424       0.00000000       0.00000000      -0.06388380
2
Properties=species:S:1:pos:R:3:forces:R:3 energy=-5.746578203247257 pbc="F F F"
Ce       0.00000000       0.00000000       0.00000000       0.00000000       0.00000000       0.04358841
Ce       0.00000000       0.00000000       5.70202020       0.00000000       0.00000000      -0.04358841
2
Properties=species:S:1:pos:R:3:forces:R:3 energy=-5.744479296018362 pbc="F F F"
Ce       0.00000000       0.00000000       0.00000000       0.00000000       0.00000000       0.02769099
Ce       0.00000000       0.00000000       5.76161616       0.00000000       0.00000000      -0.02769099
2
Properties=species:S:1:pos:R:3:forces:R:3 energy=-5.743179926462624 pbc="F F F"
Ce       0.00000000       0.00000000       0.00000000       0.00000000       0.00000000       0.01668847
Ce       0.00000000       0.00000000       5.82121212       0.00000000       0.00000000      -0.01668847
2
Properties=species:S:1:pos:R:3:forces:R:3 energy=-5.742397178641947 pbc="F F F"
Ce       0.00000000       0.00000000       0.00000000       0.00000000       0.00000000       0.01039138
Ce       0.00000000       0.00000000       5.88080808       0.00000000       0.00000000      -0.01039138
2
Properties=species:S:1:pos:R:3:forces:R:3 energy=-5.741870009354979 pbc="F F F"
Ce       0.00000000       0.00000000       0.00000000       0.00000000       0.00000000       0.00781987
Ce       0.00000000       0.00000000       5.94040404       0.00000000       0.00000000      -0.00781987
2
Properties=species:S:1:pos:R:3:forces:R:3 energy=-5.741423145900223 pbc="F F F"
Ce       0.00000000       0.00000000       0.00000000       0.00000000       0.00000000       0.00735437
Ce       0.00000000       0.00000000       6.00000000       0.00000000       0.00000000      -0.00735437
