2
Properties=species:S:1:pos:R:3:forces:R:3 energy=-1066056.0285591332 pbc="F F F"
Cl       0.00000000       0.00000000       0.00000000       0.00000000       0.00000000 6280408.50000000
Cl       0.00000000       0.00000000       0.10000000       0.00000000       0.00000000 -6280408.50000000
2
Properties=species:S:1:pos:R:3:forces:R:3 energy=-669129.7785591331 pbc="F F F"
Cl       0.00000000       0.00000000       0.00000000       0.00000000       0.00000000 6542508.00000000
Cl       0.00000000       0.00000000       0.15959596       0.00000000       0.00000000 -6542508.00000000
2
Properties=species:S:1:pos:R:3:forces:R:3 energy=-328832.2785591331 pbc="F F F"
Cl       0.00000000       0.00000000       0.00000000       0.00000000       0.00000000 4690122.50000000
Cl       0.00000000       0.00000000       0.21919192       0.00000000       0.00000000 -4690122.50000000
2
Properties=species:S:1:pos:R:3:forces:R:3 energy=-117482.1769966331 pbc="F F F"
Cl       0.00000000       0.00000000       0.00000000       0.00000000       0.00000000 2442864.75000000
Cl       0.00000000       0.00000000       0.27878788       0.00000000       0.00000000 -2442864.75000000
2
Properties=species:S:1:pos:R:3:forces:R:3 energy=-28378.46019975177 pbc="F F F"
Cl       0.00000000       0.00000000       0.00000000       0.00000000       0.00000000  644761.81250000
Cl       0.00000000       0.00000000       0.33838384       0.00000000       0.00000000 -644761.81250000
2
Properties=species:S:1:pos:R:3:forces:R:3 energy=-6478.9343208265145 pbc="F F F"
Cl       0.00000000       0.00000000       0.00000000       0.00000000       0.00000000  179280.75000000
Cl       0.00000000       0.00000000       0.39797980       0.00000000       0.00000000 -179280.75000000
2
Properties=species:S:1:pos:R:3:forces:R:3 energy=-1606.5085395480046 pbc="F F F"
Cl       0.00000000       0.00000000       0.00000000       0.00000000       0.00000000    9110.23046875
Cl       0.00000000       0.00000000       0.45757576       0.00000000       0.00000000   -9110.23046875
2
Properties=species:S:1:pos:R:3:forces:R:3 energy=-298.02553778199933 pbc="F F F"
Cl       0.00000000       0.00000000       0.00000000       0.00000000       0.00000000   17358.01367188
Cl       0.00000000       0.00000000       0.51717172       0.00000000       0.00000000  -17358.01367188
2
Properties=species:S:1:pos:R:3:forces:R:3 energy=30.706052587199235 pbc="F F F"
Cl       0.00000000       0.00000000       0.00000000       0.00000000       0.00000000    5685.01708984
Cl       0.00000000       0.00000000       0.57676768       0.00000000       0.00000000   -5685.01708984
2
Properties=species:S:1:pos:R:3:forces:R:3 energy=104.53183554047618 pbc="F F F"
Cl       0.00000000       0.00000000       0.00000000       0.00000000       0.00000000    -934.92053223
Cl       0.00000000       0.00000000       0.63636364       0.00000000       0.00000000     934.92053223
2
Properties=species:S:1:pos:R:3:forces:R:3 energy=82.84381701408076 pbc="F F F"
Cl       0.00000000       0.00000000       0.00000000       0.00000000       0.00000000    -496.44760132
Cl       0.00000000       0.00000000       0.69595960       0.00000000       0.00000000     496.44760132
2
Properties=species:S:1:pos:R:3:forces:R:3 energy=47.43876143564525 pbc="F F F"
Cl       0.00000000       0.00000000       0.00000000       0.00000000       0.00000000    -607.76501465
Cl       0.00000000       0.00000000       0.75555556       0.00000000       0.00000000     607.76501465
2
Properties=species:S:1:pos:R:3:forces:R:3 energy=22.811341640626814 pbc="F F F"
Cl       0.00000000       0.00000000       0.00000000       0.00000000       0.00000000    -228.57759094
Cl       0.00000000       0.00000000       0.81515152       0.00000000       0.00000000     228.57759094
2
Properties=species:S:1:pos:R:3:forces:R:3 energy=19.24735863889109 pbc="F F F"
Cl       0.00000000       0.00000000       0.00000000       0.00000000       0.00000000      46.12922287
Cl       0.00000000       0.00000000       0.87474747       0.00000000       0.00000000     -46.12922287
2
Properties=species:S:1:pos:R:3:forces:R:3 energy=23.081988983864772 pbc="F F F"
Cl       0.00000000       0.00000000       0.00000000       0.00000000       0.00000000      73.15306854
Cl       0.00000000       0.00000000       0.93434343       0.00000000       0.00000000     -73.15306854
2
Properties=species:S:1:pos:R:3:forces:R:3 energy=26.790156889785163 pbc="F F F"
Cl       0.00000000       0.00000000       0.00000000       0.00000000       0.00000000      36.19282150
Cl       0.00000000       0.00000000       0.99393939       0.00000000       0.00000000     -36.19282150
2
Properties=species:S:1:pos:R:3:forces:R:3 energy=26.532739726987465 pbc="F F F"
Cl       0.00000000       0.00000000       0.00000000       0.00000000       0.00000000     -43.57179260
Cl       0.00000000       0.00000000       1.05353535       0.00000000       0.00000000      43.57179260
2
Properties=species:S:1:pos:R:3:forces:R:3 energy=23.405791746850333 pbc="F F F"
Cl       0.00000000       0.00000000       0.00000000       0.00000000       0.00000000     -60.96283340
Cl       0.00000000       0.00000000       1.11313131       0.00000000       0.00000000      60.96283340
2
Properties=species:S:1:pos:R:3:forces:R:3 energy=19.28512377528333 pbc="F F F"
Cl       0.00000000       0.00000000       0.00000000       0.00000000       0.00000000     -74.23634338
Cl       0.00000000       0.00000000       1.17272727       0.00000000       0.00000000      74.23634338
2
Properties=species:S:1:pos:R:3:forces:R:3 energy=15.211057415809883 pbc="F F F"
Cl       0.00000000       0.00000000       0.00000000       0.00000000       0.00000000     -64.48480988
Cl       0.00000000       0.00000000       1.23232323       0.00000000       0.00000000      64.48480988
2
Properties=species:S:1:pos:R:3:forces:R:3 energy=11.484076666650733 pbc="F F F"
Cl       0.00000000       0.00000000       0.00000000       0.00000000       0.00000000     -61.15171814
Cl       0.00000000       0.00000000       1.29191919       0.00000000       0.00000000      61.15171814
2
Properties=species:S:1:pos:R:3:forces:R:3 energy=7.9138637496544035 pbc="F F F"
Cl       0.00000000       0.00000000       0.00000000       0.00000000       0.00000000     -57.69931030
Cl       0.00000000       0.00000000       1.35151515       0.00000000       0.00000000      57.69931030
2
Properties=species:S:1:pos:R:3:forces:R:3 energy=4.720411717439872 pbc="F F F"
Cl       0.00000000       0.00000000       0.00000000       0.00000000       0.00000000     -47.91159821
Cl       0.00000000       0.00000000       1.41111111       0.00000000       0.00000000      47.91159821
2
Properties=species:S:1:pos:R:3:forces:R:3 energy=2.220930734113814 pbc="F F F"
Cl       0.00000000       0.00000000       0.00000000       0.00000000       0.00000000     -36.34952164
Cl       0.00000000       0.00000000       1.47070707       0.00000000       0.00000000      36.34952164
2
Properties=species:S:1:pos:R:3:forces:R:3 energy=0.36591610444134354 pbc="F F F"
Cl       0.00000000       0.00000000       0.00000000       0.00000000       0.00000000     -25.97157860
Cl       0.00000000       0.00000000       1.53030303       0.00000000       0.00000000      25.97157860
2
Properties=species:S:1:pos:R:3:forces:R:3 energy=-0.9052971961506553 pbc="F F F"
Cl       0.00000000       0.00000000       0.00000000       0.00000000       0.00000000     -17.35629845
Cl       0.00000000       0.00000000       1.58989899       0.00000000       0.00000000      17.35629845
2
Properties=species:S:1:pos:R:3:forces:R:3 energy=-1.772916673750246 pbc="F F F"
Cl       0.00000000       0.00000000       0.00000000       0.00000000       0.00000000     -12.18376350
Cl       0.00000000       0.00000000       1.64949495       0.00000000       0.00000000      12.18376350
2
Properties=species:S:1:pos:R:3:forces:R:3 energy=-2.4075055138171 pbc="F F F"
Cl       0.00000000       0.00000000       0.00000000       0.00000000       0.00000000      -9.32236004
Cl       0.00000000       0.00000000       1.70909091       0.00000000       0.00000000       9.32236004
2
Properties=species:S:1:pos:R:3:forces:R:3 energy=-2.8881625225262484 pbc="F F F"
Cl       0.00000000       0.00000000       0.00000000       0.00000000       0.00000000      -6.87122822
Cl       0.00000000       0.00000000       1.76868687       0.00000000       0.00000000       6.87122822
2
Properties=species:S:1:pos:R:3:forces:R:3 energy=-3.2366929801093685 pbc="F F F"
Cl       0.00000000       0.00000000       0.00000000       0.00000000       0.00000000      -4.87277222
Cl       0.00000000       0.00000000       1.82828283       0.00000000       0.00000000       4.87277222
2
Properties=species:S:1:pos:R:3:forces:R:3 energy=-3.4656166249496034 pbc="F F F"
Cl       0.00000000       0.00000000       0.00000000       0.00000000       0.00000000      -2.72918653
Cl       0.00000000       0.00000000       1.88787879       0.00000000       0.00000000       2.72918653
2
Properties=species:S:1:pos:R:3:forces:R:3 energy=-3.5668735524135244 pbc="F F F"
Cl       0.00000000       0.00000000       0.00000000       0.00000000       0.00000000      -0.80743647
Cl       0.00000000       0.00000000       1.94747475       0.00000000       0.00000000       0.80743647
2
Properties=species:S:1:pos:R:3:forces:R:3 energy=-3.5727927921289355 pbc="F F F"
Cl       0.00000000       0.00000000       0.00000000       0.00000000       0.00000000       0.54980588
Cl       0.00000000       0.00000000       2.00707071       0.00000000       0.00000000      -0.54980588
2
Properties=species:S:1:pos:R:3:forces:R:3 energy=-3.5082198406776484 pbc="F F F"
Cl       0.00000000       0.00000000       0.00000000       0.00000000       0.00000000       1.57528186
Cl       0.00000000       0.00000000       2.06666667       0.00000000       0.00000000      -1.57528186
2
Properties=species:S:1:pos:R:3:forces:R:3 energy=-3.3871108426895464 pbc="F F F"
Cl       0.00000000       0.00000000       0.00000000       0.00000000       0.00000000       2.47822356
Cl       0.00000000       0.00000000       2.12626263       0.00000000       0.00000000      -2.47822356
2
Properties=species:S:1:pos:R:3:forces:R:3 energy=-3.216795346310432 pbc="F F F"
Cl       0.00000000       0.00000000       0.00000000       0.00000000       0.00000000       3.16841435
Cl       0.00000000       0.00000000       2.18585859       0.00000000       0.00000000      -3.16841435
2
Properties=species:S:1:pos:R:3:forces:R:3 energy=-3.020192254108662 pbc="F F F"
Cl       0.00000000       0.00000000       0.00000000       0.00000000       0.00000000       3.34230161
Cl       0.00000000       0.00000000       2.24545455       0.00000000       0.00000000      -3.34230161
2
Properties=species:S:1:pos:R:3:forces:R:3 energy=-2.826294549422573 pbc="F F F"
Cl       0.00000000       0.00000000       0.00000000       0.00000000       0.00000000       3.11556983
Cl       0.00000000       0.00000000       2.30505051       0.00000000       0.00000000      -3.11556983
2
Properties=species:S:1:pos:R:3:forces:R:3 energy=-2.65460299318444 pbc="F F F"
Cl       0.00000000       0.00000000       0.00000000       0.00000000       0.00000000       2.60504150
Cl       0.00000000       0.00000000       2.36464646       0.00000000       0.00000000      -2.60504150
2
Properties=species:S:1:pos:R:3:forces:R:3 energy=-2.516682090925173 pbc="F F F"
Cl       0.00000000       0.00000000       0.00000000       0.00000000       0.00000000       2.04548430
Cl       0.00000000       0.00000000       2.42424242       0.00000000       0.00000000      -2.04548430
2
Properties=species:S:1:pos:R:3:forces:R:3 energy=-2.407801342307689 pbc="F F F"
Cl       0.00000000       0.00000000       0.00000000       0.00000000       0.00000000       1.62589812
Cl       0.00000000       0.00000000       2.48383838       0.00000000       0.00000000      -1.62589812
2
Properties=species:S:1:pos:R:3:forces:R:3 energy=-2.3219853775826675 pbc="F F F"
Cl       0.00000000       0.00000000       0.00000000       0.00000000       0.00000000       1.25655985
Cl       0.00000000       0.00000000       2.54343434       0.00000000       0.00000000      -1.25655985
2
Properties=species:S:1:pos:R:3:forces:R:3 energy=-2.257591634972396 pbc="F F F"
Cl       0.00000000       0.00000000       0.00000000       0.00000000       0.00000000       0.90968406
Cl       0.00000000       0.00000000       2.60303030       0.00000000       0.00000000      -0.90968406
2
Properties=species:S:1:pos:R:3:forces:R:3 energy=-2.21287362622629 pbc="F F F"
Cl       0.00000000       0.00000000       0.00000000       0.00000000       0.00000000       0.59764820
Cl       0.00000000       0.00000000       2.66262626       0.00000000       0.00000000      -0.59764820
2
Properties=species:S:1:pos:R:3:forces:R:3 energy=-2.1852771243686533 pbc="F F F"
Cl       0.00000000       0.00000000       0.00000000       0.00000000       0.00000000       0.34037262
Cl       0.00000000       0.00000000       2.72222222       0.00000000       0.00000000      -0.34037262
2
Properties=species:S:1:pos:R:3:forces:R:3 energy=-2.1706890288331704 pbc="F F F"
Cl       0.00000000       0.00000000       0.00000000       0.00000000       0.00000000       0.16285089
Cl       0.00000000       0.00000000       2.78181818       0.00000000       0.00000000      -0.16285089
2
Properties=species:S:1:pos:R:3:forces:R:3 energy=-2.16446248726185 pbc="F F F"
Cl       0.00000000       0.00000000       0.00000000       0.00000000       0.00000000       0.05533591
Cl       0.00000000       0.00000000       2.84141414       0.00000000       0.00000000      -0.05533591
2
Properties=species:S:1:pos:R:3:forces:R:3 energy=-2.163328072240303 pbc="F F F"
Cl       0.00000000       0.00000000       0.00000000       0.00000000       0.00000000      -0.01338827
Cl       0.00000000       0.00000000       2.90101010       0.00000000       0.00000000       0.01338827
2
Properties=species:S:1:pos:R:3:forces:R:3 energy=-2.165809309570114 pbc="F F F"
Cl       0.00000000       0.00000000       0.00000000       0.00000000       0.00000000      -0.06901205
Cl       0.00000000       0.00000000       2.96060606       0.00000000       0.00000000       0.06901205
2
Properties=species:S:1:pos:R:3:forces:R:3 energy=-2.1714866239262696 pbc="F F F"
Cl       0.00000000       0.00000000       0.00000000       0.00000000       0.00000000      -0.12075872
Cl       0.00000000       0.00000000       3.02020202       0.00000000       0.00000000       0.12075872
2
Properties=species:S:1:pos:R:3:forces:R:3 energy=-2.180044819211929 pbc="F F F"
Cl       0.00000000       0.00000000       0.00000000       0.00000000       0.00000000      -0.16450641
Cl       0.00000000       0.00000000       3.07979798       0.00000000       0.00000000       0.16450641
2
Properties=species:S:1:pos:R:3:forces:R:3 energy=-2.1907949446093427 pbc="F F F"
Cl       0.00000000       0.00000000       0.00000000       0.00000000       0.00000000      -0.19330981
Cl       0.00000000       0.00000000       3.13939394       0.00000000       0.00000000       0.19330981
2
Properties=species:S:1:pos:R:3:forces:R:3 energy=-2.202719862542847 pbc="F F F"
Cl       0.00000000       0.00000000       0.00000000       0.00000000       0.00000000      -0.20393947
Cl       0.00000000       0.00000000       3.19898990       0.00000000       0.00000000       0.20393947
2
Properties=species:S:1:pos:R:3:forces:R:3 energy=-2.2148070817672814 pbc="F F F"
Cl       0.00000000       0.00000000       0.00000000       0.00000000       0.00000000      -0.19990443
Cl       0.00000000       0.00000000       3.25858586       0.00000000       0.00000000       0.19990443
2
Properties=species:S:1:pos:R:3:forces:R:3 energy=-2.226442772164397 pbc="F F F"
Cl       0.00000000       0.00000000       0.00000000       0.00000000       0.00000000      -0.19058935
Cl       0.00000000       0.00000000       3.31818182       0.00000000       0.00000000       0.19058935
2
Properties=species:S:1:pos:R:3:forces:R:3 energy=-2.237607732143587 pbc="F F F"
Cl       0.00000000       0.00000000       0.00000000       0.00000000       0.00000000      -0.18530771
Cl       0.00000000       0.00000000       3.37777778       0.00000000       0.00000000       0.18530771
2
Properties=species:S:1:pos:R:3:forces:R:3 energy=-2.2486878585427905 pbc="F F F"
Cl       0.00000000       0.00000000       0.00000000       0.00000000       0.00000000      -0.18779014
Cl       0.00000000       0.00000000       3.43737374       0.00000000       0.00000000       0.18779014
2
Properties=species:S:1:pos:R:3:forces:R:3 energy=-2.2601033122872365 pbc="F F F"
Cl       0.00000000       0.00000000       0.00000000       0.00000000       0.00000000      -0.19586673
Cl       0.00000000       0.00000000       3.49696970       0.00000000       0.00000000       0.19586673
2
Properties=species:S:1:pos:R:3:forces:R:3 energy=-2.272051679807219 pbc="F F F"
Cl       0.00000000       0.00000000       0.00000000       0.00000000       0.00000000      -0.20490482
Cl       0.00000000       0.00000000       3.55656566       0.00000000       0.00000000       0.20490482
2
Properties=species:S:1:pos:R:3:forces:R:3 energy=-2.284472334628213 pbc="F F F"
Cl       0.00000000       0.00000000       0.00000000       0.00000000       0.00000000      -0.21126917
Cl       0.00000000       0.00000000       3.61616162       0.00000000       0.00000000       0.21126917
2
Properties=species:S:1:pos:R:3:forces:R:3 energy=-2.2971540267545016 pbc="F F F"
Cl       0.00000000       0.00000000       0.00000000       0.00000000       0.00000000      -0.21370614
Cl       0.00000000       0.00000000       3.67575758       0.00000000       0.00000000       0.21370614
2
Properties=species:S:1:pos:R:3:forces:R:3 energy=-2.309879544141978 pbc="F F F"
Cl       0.00000000       0.00000000       0.00000000       0.00000000       0.00000000      -0.21289960
Cl       0.00000000       0.00000000       3.73535354       0.00000000       0.00000000       0.21289960
2
Properties=species:S:1:pos:R:3:forces:R:3 energy=-2.322495854525742 pbc="F F F"
Cl       0.00000000       0.00000000       0.00000000       0.00000000       0.00000000      -0.21037474
Cl       0.00000000       0.00000000       3.79494949       0.00000000       0.00000000       0.21037474
2
Properties=species:S:1:pos:R:3:forces:R:3 energy=-2.3349478864145126 pbc="F F F"
Cl       0.00000000       0.00000000       0.00000000       0.00000000       0.00000000      -0.20754856
Cl       0.00000000       0.00000000       3.85454545       0.00000000       0.00000000       0.20754856
2
Properties=species:S:1:pos:R:3:forces:R:3 energy=-2.3472445485234186 pbc="F F F"
Cl       0.00000000       0.00000000       0.00000000       0.00000000       0.00000000      -0.20521154
Cl       0.00000000       0.00000000       3.91414141       0.00000000       0.00000000       0.20521154
2
Properties=species:S:1:pos:R:3:forces:R:3 energy=-2.3594195744820956 pbc="F F F"
Cl       0.00000000       0.00000000       0.00000000       0.00000000       0.00000000      -0.20344026
Cl       0.00000000       0.00000000       3.97373737       0.00000000       0.00000000       0.20344026
2
Properties=species:S:1:pos:R:3:forces:R:3 energy=-2.37149665115765 pbc="F F F"
Cl       0.00000000       0.00000000       0.00000000       0.00000000       0.00000000      -0.20183554
Cl       0.00000000       0.00000000       4.03333333       0.00000000       0.00000000       0.20183554
2
Properties=species:S:1:pos:R:3:forces:R:3 energy=-2.383469607737837 pbc="F F F"
Cl       0.00000000       0.00000000       0.00000000       0.00000000       0.00000000      -0.19987679
Cl       0.00000000       0.00000000       4.09292929       0.00000000       0.00000000       0.19987679
2
Properties=species:S:1:pos:R:3:forces:R:3 energy=-2.395304068822005 pbc="F F F"
Cl       0.00000000       0.00000000       0.00000000       0.00000000       0.00000000      -0.19716726
Cl       0.00000000       0.00000000       4.15252525       0.00000000       0.00000000       0.19716726
2
Properties=species:S:1:pos:R:3:forces:R:3 energy=-2.4069513183366817 pbc="F F F"
Cl       0.00000000       0.00000000       0.00000000       0.00000000       0.00000000      -0.19350468
Cl       0.00000000       0.00000000       4.21212121       0.00000000       0.00000000       0.19350468
2
Properties=species:S:1:pos:R:3:forces:R:3 energy=-2.418349015583267 pbc="F F F"
Cl       0.00000000       0.00000000       0.00000000       0.00000000       0.00000000      -0.18884303
Cl       0.00000000       0.00000000       4.27171717       0.00000000       0.00000000       0.18884303
2
Properties=species:S:1:pos:R:3:forces:R:3 energy=-2.429440580002852 pbc="F F F"
Cl       0.00000000       0.00000000       0.00000000       0.00000000       0.00000000      -0.18325795
Cl       0.00000000       0.00000000       4.33131313       0.00000000       0.00000000       0.18325795
2
Properties=species:S:1:pos:R:3:forces:R:3 energy=-2.440177365453825 pbc="F F F"
Cl       0.00000000       0.00000000       0.00000000       0.00000000       0.00000000      -0.17691217
Cl       0.00000000       0.00000000       4.39090909       0.00000000       0.00000000       0.17691217
2
Properties=species:S:1:pos:R:3:forces:R:3 energy=-2.4505165801769744 pbc="F F F"
Cl       0.00000000       0.00000000       0.00000000       0.00000000       0.00000000      -0.17000329
Cl       0.00000000       0.00000000       4.45050505       0.00000000       0.00000000       0.17000329
2
Properties=species:S:1:pos:R:3:forces:R:3 energy=-2.4604313494770516 pbc="F F F"
Cl       0.00000000       0.00000000       0.00000000       0.00000000       0.00000000      -0.16268498
Cl       0.00000000       0.00000000       4.51010101       0.00000000       0.00000000       0.16268498
2
Properties=species:S:1:pos:R:3:forces:R:3 energy=-2.469899550439287 pbc="F F F"
Cl       0.00000000       0.00000000       0.00000000       0.00000000       0.00000000      -0.15500771
Cl       0.00000000       0.00000000       4.56969697       0.00000000       0.00000000       0.15500771
2
Properties=species:S:1:pos:R:3:forces:R:3 energy=-2.4788998340493196 pbc="F F F"
Cl       0.00000000       0.00000000       0.00000000       0.00000000       0.00000000      -0.14691569
Cl       0.00000000       0.00000000       4.62929293       0.00000000       0.00000000       0.14691569
2
Properties=species:S:1:pos:R:3:forces:R:3 energy=-2.4874011569504724 pbc="F F F"
Cl       0.00000000       0.00000000       0.00000000       0.00000000       0.00000000      -0.13831320
Cl       0.00000000       0.00000000       4.68888889       0.00000000       0.00000000       0.13831320
2
Properties=species:S:1:pos:R:3:forces:R:3 energy=-2.4953742877040597 pbc="F F F"
Cl       0.00000000       0.00000000       0.00000000       0.00000000       0.00000000      -0.12915082
Cl       0.00000000       0.00000000       4.74848485       0.00000000       0.00000000       0.12915082
2
Properties=species:S:1:pos:R:3:forces:R:3 energy=-2.5027851314651492 pbc="F F F"
Cl       0.00000000       0.00000000       0.00000000       0.00000000       0.00000000      -0.11950922
Cl       0.00000000       0.00000000       4.80808081       0.00000000       0.00000000       0.11950922
2
Properties=species:S:1:pos:R:3:forces:R:3 energy=-2.5096133955318636 pbc="F F F"
Cl       0.00000000       0.00000000       0.00000000       0.00000000       0.00000000      -0.10962297
Cl       0.00000000       0.00000000       4.86767677       0.00000000       0.00000000       0.10962297
2
Properties=species:S:1:pos:R:3:forces:R:3 energy=-2.515852830139826 pbc="F F F"
Cl       0.00000000       0.00000000       0.00000000       0.00000000       0.00000000      -0.09983621
Cl       0.00000000       0.00000000       4.92727273       0.00000000       0.00000000       0.09983621
2
Properties=species:S:1:pos:R:3:forces:R:3 energy=-2.5215226935407795 pbc="F F F"
Cl       0.00000000       0.00000000       0.00000000       0.00000000       0.00000000      -0.09050503
Cl       0.00000000       0.00000000       4.98686869       0.00000000       0.00000000       0.09050503
2
Properties=species:S:1:pos:R:3:forces:R:3 energy=-2.526654902741893 pbc="F F F"
Cl       0.00000000       0.00000000       0.00000000       0.00000000       0.00000000      -0.08189854
Cl       0.00000000       0.00000000       5.04646465       0.00000000       0.00000000       0.08189854
2
Properties=species:S:1:pos:R:3:forces:R:3 energy=-2.531299991990348 pbc="F F F"
Cl       0.00000000       0.00000000       0.00000000       0.00000000       0.00000000      -0.07411292
Cl       0.00000000       0.00000000       5.10606061       0.00000000       0.00000000       0.07411292
2
Properties=species:S:1:pos:R:3:forces:R:3 energy=-2.535503772699188 pbc="F F F"
Cl       0.00000000       0.00000000       0.00000000       0.00000000       0.00000000      -0.06705232
Cl       0.00000000       0.00000000       5.16565657       0.00000000       0.00000000       0.06705232
2
Properties=species:S:1:pos:R:3:forces:R:3 energy=-2.539301849424021 pbc="F F F"
Cl       0.00000000       0.00000000       0.00000000       0.00000000       0.00000000      -0.06047340
Cl       0.00000000       0.00000000       5.22525253       0.00000000       0.00000000       0.06047340
2
Properties=species:S:1:pos:R:3:forces:R:3 energy=-2.542715090701971 pbc="F F F"
Cl       0.00000000       0.00000000       0.00000000       0.00000000       0.00000000      -0.05406041
Cl       0.00000000       0.00000000       5.28484848       0.00000000       0.00000000       0.05406041
2
Properties=species:S:1:pos:R:3:forces:R:3 energy=-2.5457443925544507 pbc="F F F"
Cl       0.00000000       0.00000000       0.00000000       0.00000000       0.00000000      -0.04753650
Cl       0.00000000       0.00000000       5.34444444       0.00000000       0.00000000       0.04753650
2
Properties=species:S:1:pos:R:3:forces:R:3 energy=-2.548375686465254 pbc="F F F"
Cl       0.00000000       0.00000000       0.00000000       0.00000000       0.00000000      -0.04073712
Cl       0.00000000       0.00000000       5.40404040       0.00000000       0.00000000       0.04073712
2
Properties=species:S:1:pos:R:3:forces:R:3 energy=-2.550593765480267 pbc="F F F"
Cl       0.00000000       0.00000000       0.00000000       0.00000000       0.00000000      -0.03366797
Cl       0.00000000       0.00000000       5.46363636       0.00000000       0.00000000       0.03366797
2
Properties=species:S:1:pos:R:3:forces:R:3 energy=-2.5523856224635533 pbc="F F F"
Cl       0.00000000       0.00000000       0.00000000       0.00000000       0.00000000      -0.02650232
Cl       0.00000000       0.00000000       5.52323232       0.00000000       0.00000000       0.02650232
2
Properties=species:S:1:pos:R:3:forces:R:3 energy=-2.5537564255280754 pbc="F F F"
Cl       0.00000000       0.00000000       0.00000000       0.00000000       0.00000000      -0.01954742
Cl       0.00000000       0.00000000       5.58282828       0.00000000       0.00000000       0.01954742
2
Properties=species:S:1:pos:R:3:forces:R:3 energy=-2.5547283184192224 pbc="F F F"
Cl       0.00000000       0.00000000       0.00000000       0.00000000       0.00000000      -0.01317819
Cl       0.00000000       0.00000000       5.64242424       0.00000000       0.00000000       0.01317819
2
Properties=species:S:1:pos:R:3:forces:R:3 energy=-2.5553466231596547 pbc="F F F"
Cl       0.00000000       0.00000000       0.00000000       0.00000000       0.00000000      -0.00775690
Cl       0.00000000       0.00000000       5.70202020       0.00000000       0.00000000       0.00775690
2
Properties=species:S:1:pos:R:3:forces:R:3 energy=-2.555676975660545 pbc="F F F"
Cl       0.00000000       0.00000000       0.00000000       0.00000000       0.00000000      -0.00356206
Cl       0.00000000       0.00000000       5.76161616       0.00000000       0.00000000       0.00356206
2
Properties=species:S:1:pos:R:3:forces:R:3 energy=-2.555796974933652 pbc="F F F"
Cl       0.00000000       0.00000000       0.00000000       0.00000000       0.00000000      -0.00071220
Cl       0.00000000       0.00000000       5.82121212       0.00000000       0.00000000       0.00071220
2
Properties=species:S:1:pos:R:3:forces:R:3 energy=-2.5557873634847903 pbc="F F F"
Cl       0.00000000       0.00000000       0.00000000       0.00000000       0.00000000       0.00085804
Cl       0.00000000       0.00000000       5.88080808       0.00000000       0.00000000      -0.00085804
2
Properties=species:S:1:pos:R:3:forces:R:3 energy=-2.555715571086172 pbc="F F F"
Cl       0.00000000       0.00000000       0.00000000       0.00000000       0.00000000       0.00142267
Cl       0.00000000       0.00000000       5.94040404       0.00000000       0.00000000      -0.00142267
2
Properties=species:S:1:pos:R:3:forces:R:3 energy=-2.555629754014945 pbc="F F F"
Cl       0.00000000       0.00000000       0.00000000       0.00000000       0.00000000       0.00142215
Cl       0.00000000       0.00000000       6.00000000       0.00000000       0.00000000      -0.00142215
