2
Properties=species:S:1:pos:R:3:forces:R:3 energy=289261.8886383106 pbc="F F F"
Cr       0.00000000       0.00000000       0.00000000       0.00000000       0.00000000 -2901565.25000000
Cr       0.00000000       0.00000000       0.10000000       0.00000000       0.00000000 2901565.25000000
2
Properties=species:S:1:pos:R:3:forces:R:3 energy=118081.36520081059 pbc="F F F"
Cr       0.00000000       0.00000000       0.00000000       0.00000000       0.00000000 -2600584.50000000
Cr       0.00000000       0.00000000       0.15959596       0.00000000       0.00000000 2600584.50000000
2
Properties=species:S:1:pos:R:3:forces:R:3 energy=-2333.8750335644145 pbc="F F F"
Cr       0.00000000       0.00000000       0.00000000       0.00000000       0.00000000 -1380603.12500000
Cr       0.00000000       0.00000000       0.21919192       0.00000000       0.00000000 1380603.12500000
2
Properties=species:S:1:pos:R:3:forces:R:3 energy=-47901.34964293625 pbc="F F F"
Cr       0.00000000       0.00000000       0.00000000       0.00000000       0.00000000 -215436.42187500
Cr       0.00000000       0.00000000       0.27878788       0.00000000       0.00000000  215436.42187500
2
Properties=species:S:1:pos:R:3:forces:R:3 energy=-29380.615267936246 pbc="F F F"
Cr       0.00000000       0.00000000       0.00000000       0.00000000       0.00000000  461902.18750000
Cr       0.00000000       0.00000000       0.33838384       0.00000000       0.00000000 -461902.18750000
2
Properties=species:S:1:pos:R:3:forces:R:3 energy=-8360.76272886741 pbc="F F F"
Cr       0.00000000       0.00000000       0.00000000       0.00000000       0.00000000  141691.67187500
Cr       0.00000000       0.00000000       0.39797980       0.00000000       0.00000000 -141691.67187500
2
Properties=species:S:1:pos:R:3:forces:R:3 energy=-2562.012240570322 pbc="F F F"
Cr       0.00000000       0.00000000       0.00000000       0.00000000       0.00000000   58800.90625000
Cr       0.00000000       0.00000000       0.45757576       0.00000000       0.00000000  -58800.90625000
2
Properties=species:S:1:pos:R:3:forces:R:3 energy=-391.5017119773585 pbc="F F F"
Cr       0.00000000       0.00000000       0.00000000       0.00000000       0.00000000   17713.05078125
Cr       0.00000000       0.00000000       0.51717172       0.00000000       0.00000000  -17713.05078125
2
Properties=species:S:1:pos:R:3:forces:R:3 energy=187.8023041866079 pbc="F F F"
Cr       0.00000000       0.00000000       0.00000000       0.00000000       0.00000000    1775.20422363
Cr       0.00000000       0.00000000       0.57676768       0.00000000       0.00000000   -1775.20422363
2
Properties=species:S:1:pos:R:3:forces:R:3 energy=191.89066792276785 pbc="F F F"
Cr       0.00000000       0.00000000       0.00000000       0.00000000       0.00000000   -1700.15881348
Cr       0.00000000       0.00000000       0.63636364       0.00000000       0.00000000    1700.15881348
2
Properties=species:S:1:pos:R:3:forces:R:3 energy=101.93080630044528 pbc="F F F"
Cr       0.00000000       0.00000000       0.00000000       0.00000000       0.00000000    -954.83801270
Cr       0.00000000       0.00000000       0.69595960       0.00000000       0.00000000     954.83801270
2
Properties=species:S:1:pos:R:3:forces:R:3 energy=62.12423455540797 pbc="F F F"
Cr       0.00000000       0.00000000       0.00000000       0.00000000       0.00000000    -501.68862915
Cr       0.00000000       0.00000000       0.75555556       0.00000000       0.00000000     501.68862915
2
Properties=species:S:1:pos:R:3:forces:R:3 energy=40.81641932043238 pbc="F F F"
Cr       0.00000000       0.00000000       0.00000000       0.00000000       0.00000000    -214.11300659
Cr       0.00000000       0.00000000       0.81515152       0.00000000       0.00000000     214.11300659
2
Properties=species:S:1:pos:R:3:forces:R:3 energy=30.14964693419154 pbc="F F F"
Cr       0.00000000       0.00000000       0.00000000       0.00000000       0.00000000    -167.72763062
Cr       0.00000000       0.00000000       0.87474747       0.00000000       0.00000000     167.72763062
2
Properties=species:S:1:pos:R:3:forces:R:3 energy=20.69878470224142 pbc="F F F"
Cr       0.00000000       0.00000000       0.00000000       0.00000000       0.00000000    -171.06611633
Cr       0.00000000       0.00000000       0.93434343       0.00000000       0.00000000     171.06611633
2
Properties=species:S:1:pos:R:3:forces:R:3 energy=11.943481262187236 pbc="F F F"
Cr       0.00000000       0.00000000       0.00000000       0.00000000       0.00000000     -97.21369171
Cr       0.00000000       0.00000000       0.99393939       0.00000000       0.00000000      97.21369171
2
Properties=species:S:1:pos:R:3:forces:R:3 energy=9.386420335918732 pbc="F F F"
Cr       0.00000000       0.00000000       0.00000000       0.00000000       0.00000000     -20.01727295
Cr       0.00000000       0.00000000       1.05353535       0.00000000       0.00000000      20.01727295
2
Properties=species:S:1:pos:R:3:forces:R:3 energy=7.949604801325508 pbc="F F F"
Cr       0.00000000       0.00000000       0.00000000       0.00000000       0.00000000     -26.75039864
Cr       0.00000000       0.00000000       1.11313131       0.00000000       0.00000000      26.75039864
2
Properties=species:S:1:pos:R:3:forces:R:3 energy=6.016282138433973 pbc="F F F"
Cr       0.00000000       0.00000000       0.00000000       0.00000000       0.00000000     -42.35766602
Cr       0.00000000       0.00000000       1.17272727       0.00000000       0.00000000      42.35766602
2
Properties=species:S:1:pos:R:3:forces:R:3 energy=2.9391898943791817 pbc="F F F"
Cr       0.00000000       0.00000000       0.00000000       0.00000000       0.00000000     -55.33401108
Cr       0.00000000       0.00000000       1.23232323       0.00000000       0.00000000      55.33401108
2
Properties=species:S:1:pos:R:3:forces:R:3 energy=-0.1479456429491744 pbc="F F F"
Cr       0.00000000       0.00000000       0.00000000       0.00000000       0.00000000     -46.80737305
Cr       0.00000000       0.00000000       1.29191919       0.00000000       0.00000000      46.80737305
2
Properties=species:S:1:pos:R:3:forces:R:3 energy=-2.721928094762039 pbc="F F F"
Cr       0.00000000       0.00000000       0.00000000       0.00000000       0.00000000     -38.18208694
Cr       0.00000000       0.00000000       1.35151515       0.00000000       0.00000000      38.18208694
2
Properties=species:S:1:pos:R:3:forces:R:3 energy=-4.874673329937057 pbc="F F F"
Cr       0.00000000       0.00000000       0.00000000       0.00000000       0.00000000     -34.40974426
Cr       0.00000000       0.00000000       1.41111111       0.00000000       0.00000000      34.40974426
2
Properties=species:S:1:pos:R:3:forces:R:3 energy=-6.754566174639275 pbc="F F F"
Cr       0.00000000       0.00000000       0.00000000       0.00000000       0.00000000     -28.24217415
Cr       0.00000000       0.00000000       1.47070707       0.00000000       0.00000000      28.24217415
2
Properties=species:S:1:pos:R:3:forces:R:3 energy=-8.234774367081105 pbc="F F F"
Cr       0.00000000       0.00000000       0.00000000       0.00000000       0.00000000     -21.49531746
Cr       0.00000000       0.00000000       1.53030303       0.00000000       0.00000000      21.49531746
2
Properties=species:S:1:pos:R:3:forces:R:3 energy=-9.32265234581539 pbc="F F F"
Cr       0.00000000       0.00000000       0.00000000       0.00000000       0.00000000     -15.17063904
Cr       0.00000000       0.00000000       1.58989899       0.00000000       0.00000000      15.17063904
2
Properties=species:S:1:pos:R:3:forces:R:3 energy=-10.076165199398291 pbc="F F F"
Cr       0.00000000       0.00000000       0.00000000       0.00000000       0.00000000     -10.69960403
Cr       0.00000000       0.00000000       1.64949495       0.00000000       0.00000000      10.69960403
2
Properties=species:S:1:pos:R:3:forces:R:3 energy=-10.646797252543973 pbc="F F F"
Cr       0.00000000       0.00000000       0.00000000       0.00000000       0.00000000      -8.58055592
Cr       0.00000000       0.00000000       1.70909091       0.00000000       0.00000000       8.58055592
2
Properties=species:S:1:pos:R:3:forces:R:3 energy=-11.09706394460736 pbc="F F F"
Cr       0.00000000       0.00000000       0.00000000       0.00000000       0.00000000      -6.58129406
Cr       0.00000000       0.00000000       1.76868687       0.00000000       0.00000000       6.58129406
2
Properties=species:S:1:pos:R:3:forces:R:3 energy=-11.437649105061617 pbc="F F F"
Cr       0.00000000       0.00000000       0.00000000       0.00000000       0.00000000      -4.75640440
Cr       0.00000000       0.00000000       1.82828283       0.00000000       0.00000000       4.75640440
2
Properties=species:S:1:pos:R:3:forces:R:3 energy=-11.669125961543294 pbc="F F F"
Cr       0.00000000       0.00000000       0.00000000       0.00000000       0.00000000      -3.13102388
Cr       0.00000000       0.00000000       1.88787879       0.00000000       0.00000000       3.13102388
2
Properties=species:S:1:pos:R:3:forces:R:3 energy=-11.82220312100873 pbc="F F F"
Cr       0.00000000       0.00000000       0.00000000       0.00000000       0.00000000      -2.07657003
Cr       0.00000000       0.00000000       1.94747475       0.00000000       0.00000000       2.07657003
2
Properties=species:S:1:pos:R:3:forces:R:3 energy=-11.921553305830779 pbc="F F F"
Cr       0.00000000       0.00000000       0.00000000       0.00000000       0.00000000      -1.29802191
Cr       0.00000000       0.00000000       2.00707071       0.00000000       0.00000000       1.29802191
2
Properties=species:S:1:pos:R:3:forces:R:3 energy=-11.985369406917517 pbc="F F F"
Cr       0.00000000       0.00000000       0.00000000       0.00000000       0.00000000      -0.92408985
Cr       0.00000000       0.00000000       2.06666667       0.00000000       0.00000000       0.92408985
2
Properties=species:S:1:pos:R:3:forces:R:3 energy=-12.038646425654672 pbc="F F F"
Cr       0.00000000       0.00000000       0.00000000       0.00000000       0.00000000      -0.89740294
Cr       0.00000000       0.00000000       2.12626263       0.00000000       0.00000000       0.89740294
2
Properties=species:S:1:pos:R:3:forces:R:3 energy=-12.093874466291595 pbc="F F F"
Cr       0.00000000       0.00000000       0.00000000       0.00000000       0.00000000      -0.95482188
Cr       0.00000000       0.00000000       2.18585859       0.00000000       0.00000000       0.95482188
2
Properties=species:S:1:pos:R:3:forces:R:3 energy=-12.151901990164964 pbc="F F F"
Cr       0.00000000       0.00000000       0.00000000       0.00000000       0.00000000      -0.98723018
Cr       0.00000000       0.00000000       2.24545455       0.00000000       0.00000000       0.98723018
2
Properties=species:S:1:pos:R:3:forces:R:3 energy=-12.210908123502085 pbc="F F F"
Cr       0.00000000       0.00000000       0.00000000       0.00000000       0.00000000      -0.99278361
Cr       0.00000000       0.00000000       2.30505051       0.00000000       0.00000000       0.99278361
2
Properties=species:S:1:pos:R:3:forces:R:3 energy=-12.271649331554809 pbc="F F F"
Cr       0.00000000       0.00000000       0.00000000       0.00000000       0.00000000      -1.05987227
Cr       0.00000000       0.00000000       2.36464646       0.00000000       0.00000000       1.05987227
2
Properties=species:S:1:pos:R:3:forces:R:3 energy=-12.336973413836354 pbc="F F F"
Cr       0.00000000       0.00000000       0.00000000       0.00000000       0.00000000      -1.11722469
Cr       0.00000000       0.00000000       2.42424242       0.00000000       0.00000000       1.11722469
2
Properties=species:S:1:pos:R:3:forces:R:3 energy=-12.403488163064871 pbc="F F F"
Cr       0.00000000       0.00000000       0.00000000       0.00000000       0.00000000      -1.11232316
Cr       0.00000000       0.00000000       2.48383838       0.00000000       0.00000000       1.11232316
2
Properties=species:S:1:pos:R:3:forces:R:3 energy=-12.469559840359354 pbc="F F F"
Cr       0.00000000       0.00000000       0.00000000       0.00000000       0.00000000      -1.10398948
Cr       0.00000000       0.00000000       2.54343434       0.00000000       0.00000000       1.10398948
2
Properties=species:S:1:pos:R:3:forces:R:3 energy=-12.534840218418653 pbc="F F F"
Cr       0.00000000       0.00000000       0.00000000       0.00000000       0.00000000      -1.08392692
Cr       0.00000000       0.00000000       2.60303030       0.00000000       0.00000000       1.08392692
2
Properties=species:S:1:pos:R:3:forces:R:3 energy=-12.598094490091704 pbc="F F F"
Cr       0.00000000       0.00000000       0.00000000       0.00000000       0.00000000      -1.02999306
Cr       0.00000000       0.00000000       2.66262626       0.00000000       0.00000000       1.02999306
2
Properties=species:S:1:pos:R:3:forces:R:3 energy=-12.65640410925565 pbc="F F F"
Cr       0.00000000       0.00000000       0.00000000       0.00000000       0.00000000      -0.91832280
Cr       0.00000000       0.00000000       2.72222222       0.00000000       0.00000000       0.91832280
2
Properties=species:S:1:pos:R:3:forces:R:3 energy=-12.707063457654321 pbc="F F F"
Cr       0.00000000       0.00000000       0.00000000       0.00000000       0.00000000      -0.78196013
Cr       0.00000000       0.00000000       2.78181818       0.00000000       0.00000000       0.78196013
2
Properties=species:S:1:pos:R:3:forces:R:3 energy=-12.749877281189399 pbc="F F F"
Cr       0.00000000       0.00000000       0.00000000       0.00000000       0.00000000      -0.65767610
Cr       0.00000000       0.00000000       2.84141414       0.00000000       0.00000000       0.65767610
2
Properties=species:S:1:pos:R:3:forces:R:3 energy=-12.785722558157339 pbc="F F F"
Cr       0.00000000       0.00000000       0.00000000       0.00000000       0.00000000      -0.54674095
Cr       0.00000000       0.00000000       2.90101010       0.00000000       0.00000000       0.54674095
2
Properties=species:S:1:pos:R:3:forces:R:3 energy=-12.815141167624798 pbc="F F F"
Cr       0.00000000       0.00000000       0.00000000       0.00000000       0.00000000      -0.44082168
Cr       0.00000000       0.00000000       2.96060606       0.00000000       0.00000000       0.44082168
2
Properties=species:S:1:pos:R:3:forces:R:3 energy=-12.838271747277979 pbc="F F F"
Cr       0.00000000       0.00000000       0.00000000       0.00000000       0.00000000      -0.33545145
Cr       0.00000000       0.00000000       3.02020202       0.00000000       0.00000000       0.33545145
2
Properties=species:S:1:pos:R:3:forces:R:3 energy=-12.855162578126412 pbc="F F F"
Cr       0.00000000       0.00000000       0.00000000       0.00000000       0.00000000      -0.23209101
Cr       0.00000000       0.00000000       3.07979798       0.00000000       0.00000000       0.23209101
2
Properties=species:S:1:pos:R:3:forces:R:3 energy=-12.86607313747174 pbc="F F F"
Cr       0.00000000       0.00000000       0.00000000       0.00000000       0.00000000      -0.13562216
Cr       0.00000000       0.00000000       3.13939394       0.00000000       0.00000000       0.13562216
2
Properties=species:S:1:pos:R:3:forces:R:3 energy=-12.871536588646206 pbc="F F F"
Cr       0.00000000       0.00000000       0.00000000       0.00000000       0.00000000      -0.04965985
Cr       0.00000000       0.00000000       3.19898990       0.00000000       0.00000000       0.04965985
2
Properties=species:S:1:pos:R:3:forces:R:3 energy=-12.872230794675827 pbc="F F F"
Cr       0.00000000       0.00000000       0.00000000       0.00000000       0.00000000       0.02432358
Cr       0.00000000       0.00000000       3.25858586       0.00000000       0.00000000      -0.02432358
2
Properties=species:S:1:pos:R:3:forces:R:3 energy=-12.868895046872522 pbc="F F F"
Cr       0.00000000       0.00000000       0.00000000       0.00000000       0.00000000       0.08539291
Cr       0.00000000       0.00000000       3.31818182       0.00000000       0.00000000      -0.08539291
2
Properties=species:S:1:pos:R:3:forces:R:3 energy=-12.862318170591859 pbc="F F F"
Cr       0.00000000       0.00000000       0.00000000       0.00000000       0.00000000       0.13312276
Cr       0.00000000       0.00000000       3.37777778       0.00000000       0.00000000      -0.13312276
2
Properties=species:S:1:pos:R:3:forces:R:3 energy=-12.853274030175626 pbc="F F F"
Cr       0.00000000       0.00000000       0.00000000       0.00000000       0.00000000       0.16849560
Cr       0.00000000       0.00000000       3.43737374       0.00000000       0.00000000      -0.16849560
2
Properties=species:S:1:pos:R:3:forces:R:3 energy=-12.842435983367352 pbc="F F F"
Cr       0.00000000       0.00000000       0.00000000       0.00000000       0.00000000       0.19374907
Cr       0.00000000       0.00000000       3.49696970       0.00000000       0.00000000      -0.19374907
2
Properties=species:S:1:pos:R:3:forces:R:3 energy=-12.83033507803348 pbc="F F F"
Cr       0.00000000       0.00000000       0.00000000       0.00000000       0.00000000       0.21121465
Cr       0.00000000       0.00000000       3.55656566       0.00000000       0.00000000      -0.21121465
2
Properties=species:S:1:pos:R:3:forces:R:3 energy=-12.817384955401561 pbc="F F F"
Cr       0.00000000       0.00000000       0.00000000       0.00000000       0.00000000       0.22240126
Cr       0.00000000       0.00000000       3.61616162       0.00000000       0.00000000      -0.22240126
2
Properties=species:S:1:pos:R:3:forces:R:3 energy=-12.803937296219127 pbc="F F F"
Cr       0.00000000       0.00000000       0.00000000       0.00000000       0.00000000       0.22802775
Cr       0.00000000       0.00000000       3.67575758       0.00000000       0.00000000      -0.22802775
2
Properties=species:S:1:pos:R:3:forces:R:3 energy=-12.790306616285918 pbc="F F F"
Cr       0.00000000       0.00000000       0.00000000       0.00000000       0.00000000       0.22859469
Cr       0.00000000       0.00000000       3.73535354       0.00000000       0.00000000      -0.22859469
2
Properties=species:S:1:pos:R:3:forces:R:3 energy=-12.776776165897823 pbc="F F F"
Cr       0.00000000       0.00000000       0.00000000       0.00000000       0.00000000       0.22482374
Cr       0.00000000       0.00000000       3.79494949       0.00000000       0.00000000      -0.22482374
2
Properties=species:S:1:pos:R:3:forces:R:3 energy=-12.763576008008894 pbc="F F F"
Cr       0.00000000       0.00000000       0.00000000       0.00000000       0.00000000       0.21770205
Cr       0.00000000       0.00000000       3.85454545       0.00000000       0.00000000      -0.21770205
2
Properties=species:S:1:pos:R:3:forces:R:3 energy=-12.75087344980995 pbc="F F F"
Cr       0.00000000       0.00000000       0.00000000       0.00000000       0.00000000       0.20827210
Cr       0.00000000       0.00000000       3.91414141       0.00000000       0.00000000      -0.20827210
2
Properties=species:S:1:pos:R:3:forces:R:3 energy=-12.738779661428007 pbc="F F F"
Cr       0.00000000       0.00000000       0.00000000       0.00000000       0.00000000       0.19740500
Cr       0.00000000       0.00000000       3.97373737       0.00000000       0.00000000      -0.19740500
2
Properties=species:S:1:pos:R:3:forces:R:3 energy=-12.727361183374507 pbc="F F F"
Cr       0.00000000       0.00000000       0.00000000       0.00000000       0.00000000       0.18573251
Cr       0.00000000       0.00000000       4.03333333       0.00000000       0.00000000      -0.18573251
2
Properties=species:S:1:pos:R:3:forces:R:3 energy=-12.716648313209198 pbc="F F F"
Cr       0.00000000       0.00000000       0.00000000       0.00000000       0.00000000       0.17371866
Cr       0.00000000       0.00000000       4.09292929       0.00000000       0.00000000      -0.17371866
2
Properties=species:S:1:pos:R:3:forces:R:3 energy=-12.706654052313576 pbc="F F F"
Cr       0.00000000       0.00000000       0.00000000       0.00000000       0.00000000       0.16174963
Cr       0.00000000       0.00000000       4.15252525       0.00000000       0.00000000      -0.16174963
2
Properties=species:S:1:pos:R:3:forces:R:3 energy=-12.697362528750554 pbc="F F F"
Cr       0.00000000       0.00000000       0.00000000       0.00000000       0.00000000       0.15014808
Cr       0.00000000       0.00000000       4.21212121       0.00000000       0.00000000      -0.15014808
2
Properties=species:S:1:pos:R:3:forces:R:3 energy=-12.688744949966432 pbc="F F F"
Cr       0.00000000       0.00000000       0.00000000       0.00000000       0.00000000       0.13913873
Cr       0.00000000       0.00000000       4.27171717       0.00000000       0.00000000      -0.13913873
2
Properties=species:S:1:pos:R:3:forces:R:3 energy=-12.680765236137763 pbc="F F F"
Cr       0.00000000       0.00000000       0.00000000       0.00000000       0.00000000       0.12882599
Cr       0.00000000       0.00000000       4.33131313       0.00000000       0.00000000      -0.12882599
2
Properties=species:S:1:pos:R:3:forces:R:3 energy=-12.673376845534026 pbc="F F F"
Cr       0.00000000       0.00000000       0.00000000       0.00000000       0.00000000       0.11920835
Cr       0.00000000       0.00000000       4.39090909       0.00000000       0.00000000      -0.11920835
2
Properties=species:S:1:pos:R:3:forces:R:3 energy=-12.666542614776752 pbc="F F F"
Cr       0.00000000       0.00000000       0.00000000       0.00000000       0.00000000       0.11022234
Cr       0.00000000       0.00000000       4.45050505       0.00000000       0.00000000      -0.11022234
2
Properties=species:S:1:pos:R:3:forces:R:3 energy=-12.66022792156039 pbc="F F F"
Cr       0.00000000       0.00000000       0.00000000       0.00000000       0.00000000       0.10178918
Cr       0.00000000       0.00000000       4.51010101       0.00000000       0.00000000      -0.10178918
2
Properties=species:S:1:pos:R:3:forces:R:3 energy=-12.654401334215683 pbc="F F F"
Cr       0.00000000       0.00000000       0.00000000       0.00000000       0.00000000       0.09384513
Cr       0.00000000       0.00000000       4.56969697       0.00000000       0.00000000      -0.09384513
2
Properties=species:S:1:pos:R:3:forces:R:3 energy=-12.649033683377946 pbc="F F F"
Cr       0.00000000       0.00000000       0.00000000       0.00000000       0.00000000       0.08635946
Cr       0.00000000       0.00000000       4.62929293       0.00000000       0.00000000      -0.08635946
2
Properties=species:S:1:pos:R:3:forces:R:3 energy=-12.644097792722167 pbc="F F F"
Cr       0.00000000       0.00000000       0.00000000       0.00000000       0.00000000       0.07933620
Cr       0.00000000       0.00000000       4.68888889       0.00000000       0.00000000      -0.07933620
2
Properties=species:S:1:pos:R:3:forces:R:3 energy=-12.63956655577528 pbc="F F F"
Cr       0.00000000       0.00000000       0.00000000       0.00000000       0.00000000       0.07280554
Cr       0.00000000       0.00000000       4.74848485       0.00000000       0.00000000      -0.07280554
2
Properties=species:S:1:pos:R:3:forces:R:3 energy=-12.635409922837734 pbc="F F F"
Cr       0.00000000       0.00000000       0.00000000       0.00000000       0.00000000       0.06682149
Cr       0.00000000       0.00000000       4.80808081       0.00000000       0.00000000      -0.06682149
2
Properties=species:S:1:pos:R:3:forces:R:3 energy=-12.631591181320909 pbc="F F F"
Cr       0.00000000       0.00000000       0.00000000       0.00000000       0.00000000       0.06144521
Cr       0.00000000       0.00000000       4.86767677       0.00000000       0.00000000      -0.06144521
2
Properties=species:S:1:pos:R:3:forces:R:3 energy=-12.628072620772205 pbc="F F F"
Cr       0.00000000       0.00000000       0.00000000       0.00000000       0.00000000       0.05673534
Cr       0.00000000       0.00000000       4.92727273       0.00000000       0.00000000      -0.05673534
2
Properties=species:S:1:pos:R:3:forces:R:3 energy=-12.624814604543305 pbc="F F F"
Cr       0.00000000       0.00000000       0.00000000       0.00000000       0.00000000       0.05272581
Cr       0.00000000       0.00000000       4.98686869       0.00000000       0.00000000      -0.05272581
2
Properties=species:S:1:pos:R:3:forces:R:3 energy=-12.62177469847924 pbc="F F F"
Cr       0.00000000       0.00000000       0.00000000       0.00000000       0.00000000       0.04940515
Cr       0.00000000       0.00000000       5.04646465       0.00000000       0.00000000      -0.04940515
2
Properties=species:S:1:pos:R:3:forces:R:3 energy=-12.618913367621703 pbc="F F F"
Cr       0.00000000       0.00000000       0.00000000       0.00000000       0.00000000       0.04669710
Cr       0.00000000       0.00000000       5.10606061       0.00000000       0.00000000      -0.04669710
2
Properties=species:S:1:pos:R:3:forces:R:3 energy=-12.61619990733121 pbc="F F F"
Cr       0.00000000       0.00000000       0.00000000       0.00000000       0.00000000       0.04445621
Cr       0.00000000       0.00000000       5.16565657       0.00000000       0.00000000      -0.04445621
2
Properties=species:S:1:pos:R:3:forces:R:3 energy=-12.61360958543198 pbc="F F F"
Cr       0.00000000       0.00000000       0.00000000       0.00000000       0.00000000       0.04248040
Cr       0.00000000       0.00000000       5.22525253       0.00000000       0.00000000      -0.04248040
2
Properties=species:S:1:pos:R:3:forces:R:3 energy=-12.611135159163632 pbc="F F F"
Cr       0.00000000       0.00000000       0.00000000       0.00000000       0.00000000       0.04054181
Cr       0.00000000       0.00000000       5.28484848       0.00000000       0.00000000      -0.04054181
2
Properties=species:S:1:pos:R:3:forces:R:3 energy=-12.608780346764709 pbc="F F F"
Cr       0.00000000       0.00000000       0.00000000       0.00000000       0.00000000       0.03842864
Cr       0.00000000       0.00000000       5.34444444       0.00000000       0.00000000      -0.03842864
2
Properties=species:S:1:pos:R:3:forces:R:3 energy=-12.606560814409114 pbc="F F F"
Cr       0.00000000       0.00000000       0.00000000       0.00000000       0.00000000       0.03599025
Cr       0.00000000       0.00000000       5.40404040       0.00000000       0.00000000      -0.03599025
2
Properties=species:S:1:pos:R:3:forces:R:3 energy=-12.604498563450095 pbc="F F F"
Cr       0.00000000       0.00000000       0.00000000       0.00000000       0.00000000       0.03316671
Cr       0.00000000       0.00000000       5.46363636       0.00000000       0.00000000      -0.03316671
2
Properties=species:S:1:pos:R:3:forces:R:3 energy=-12.602615303801253 pbc="F F F"
Cr       0.00000000       0.00000000       0.00000000       0.00000000       0.00000000       0.03000316
Cr       0.00000000       0.00000000       5.52323232       0.00000000       0.00000000      -0.03000316
2
Properties=species:S:1:pos:R:3:forces:R:3 energy=-12.600925878002739 pbc="F F F"
Cr       0.00000000       0.00000000       0.00000000       0.00000000       0.00000000       0.02663646
Cr       0.00000000       0.00000000       5.58282828       0.00000000       0.00000000      -0.02663646
2
Properties=species:S:1:pos:R:3:forces:R:3 energy=-12.599440165402058 pbc="F F F"
Cr       0.00000000       0.00000000       0.00000000       0.00000000       0.00000000       0.02327035
Cr       0.00000000       0.00000000       5.64242424       0.00000000       0.00000000      -0.02327035
2
Properties=species:S:1:pos:R:3:forces:R:3 energy=-12.59814794374225 pbc="F F F"
Cr       0.00000000       0.00000000       0.00000000       0.00000000       0.00000000       0.02012626
Cr       0.00000000       0.00000000       5.70202020       0.00000000       0.00000000      -0.02012626
2
Properties=species:S:1:pos:R:3:forces:R:3 energy=-12.597034160622243 pbc="F F F"
Cr       0.00000000       0.00000000       0.00000000       0.00000000       0.00000000       0.01740505
Cr       0.00000000       0.00000000       5.76161616       0.00000000       0.00000000      -0.01740505
2
Properties=species:S:1:pos:R:3:forces:R:3 energy=-12.596063688962987 pbc="F F F"
Cr       0.00000000       0.00000000       0.00000000       0.00000000       0.00000000       0.01523354
Cr       0.00000000       0.00000000       5.82121212       0.00000000       0.00000000      -0.01523354
2
Properties=species:S:1:pos:R:3:forces:R:3 energy=-12.59520525281265 pbc="F F F"
Cr       0.00000000       0.00000000       0.00000000       0.00000000       0.00000000       0.01364270
Cr       0.00000000       0.00000000       5.88080808       0.00000000       0.00000000      -0.01364270
2
Properties=species:S:1:pos:R:3:forces:R:3 energy=-12.594426628880736 pbc="F F F"
Cr       0.00000000       0.00000000       0.00000000       0.00000000       0.00000000       0.01254450
Cr       0.00000000       0.00000000       5.94040404       0.00000000       0.00000000      -0.01254450
2
Properties=species:S:1:pos:R:3:forces:R:3 energy=-12.593703296131178 pbc="F F F"
Cr       0.00000000       0.00000000       0.00000000       0.00000000       0.00000000       0.01175158
Cr       0.00000000       0.00000000       6.00000000       0.00000000       0.00000000      -0.01175158
