2
Properties=species:S:1:pos:R:3:forces:R:3 energy=-3197053.1170337447 pbc="F F F"
Dy       0.00000000       0.00000000       0.00000000       0.00000000       0.00000000 19204692.00000000
Dy       0.00000000       0.00000000       0.10000000       0.00000000       0.00000000 -19204692.00000000
2
Properties=species:S:1:pos:R:3:forces:R:3 energy=-1992001.9920337447 pbc="F F F"
Dy       0.00000000       0.00000000       0.00000000       0.00000000       0.00000000 19819314.00000000
Dy       0.00000000       0.00000000       0.15959596       0.00000000       0.00000000 -19819314.00000000
2
Properties=species:S:1:pos:R:3:forces:R:3 energy=-980019.1795337447 pbc="F F F"
Dy       0.00000000       0.00000000       0.00000000       0.00000000       0.00000000 13934948.00000000
Dy       0.00000000       0.00000000       0.21919192       0.00000000       0.00000000 -13934948.00000000
2
Properties=species:S:1:pos:R:3:forces:R:3 energy=-350596.30453374475 pbc="F F F"
Dy       0.00000000       0.00000000       0.00000000       0.00000000       0.00000000 7282629.50000000
Dy       0.00000000       0.00000000       0.27878788       0.00000000       0.00000000 -7282629.50000000
2
Properties=species:S:1:pos:R:3:forces:R:3 energy=-56172.76937748206 pbc="F F F"
Dy       0.00000000       0.00000000       0.00000000       0.00000000       0.00000000 2944494.25000000
Dy       0.00000000       0.00000000       0.33838384       0.00000000       0.00000000 -2944494.25000000
2
Properties=species:S:1:pos:R:3:forces:R:3 energy=-16877.92953373206 pbc="F F F"
Dy       0.00000000       0.00000000       0.00000000       0.00000000       0.00000000  228319.09375000
Dy       0.00000000       0.00000000       0.39797980       0.00000000       0.00000000 -228319.09375000
2
Properties=species:S:1:pos:R:3:forces:R:3 energy=-7734.451506375636 pbc="F F F"
Dy       0.00000000       0.00000000       0.00000000       0.00000000       0.00000000   93072.47656250
Dy       0.00000000       0.00000000       0.45757576       0.00000000       0.00000000  -93072.47656250
2
Properties=species:S:1:pos:R:3:forces:R:3 energy=-2742.71444581609 pbc="F F F"
Dy       0.00000000       0.00000000       0.00000000       0.00000000       0.00000000  -24980.65625000
Dy       0.00000000       0.00000000       0.51717172       0.00000000       0.00000000   24980.65625000
2
Properties=species:S:1:pos:R:3:forces:R:3 energy=4574.925935055956 pbc="F F F"
Dy       0.00000000       0.00000000       0.00000000       0.00000000       0.00000000  126022.37500000
Dy       0.00000000       0.00000000       0.57676768       0.00000000       0.00000000 -126022.37500000
2
Properties=species:S:1:pos:R:3:forces:R:3 energy=4929.349274950391 pbc="F F F"
Dy       0.00000000       0.00000000       0.00000000       0.00000000       0.00000000  -40745.87109375
Dy       0.00000000       0.00000000       0.63636364       0.00000000       0.00000000   40745.87109375
2
Properties=species:S:1:pos:R:3:forces:R:3 energy=2762.451325807669 pbc="F F F"
Dy       0.00000000       0.00000000       0.00000000       0.00000000       0.00000000  -24613.52148438
Dy       0.00000000       0.00000000       0.69595960       0.00000000       0.00000000   24613.52148438
2
Properties=species:S:1:pos:R:3:forces:R:3 energy=1577.3056960262265 pbc="F F F"
Dy       0.00000000       0.00000000       0.00000000       0.00000000       0.00000000  -16079.04003906
Dy       0.00000000       0.00000000       0.75555556       0.00000000       0.00000000   16079.04003906
2
Properties=species:S:1:pos:R:3:forces:R:3 energy=861.7596146353134 pbc="F F F"
Dy       0.00000000       0.00000000       0.00000000       0.00000000       0.00000000   -8164.36425781
Dy       0.00000000       0.00000000       0.81515152       0.00000000       0.00000000    8164.36425781
2
Properties=species:S:1:pos:R:3:forces:R:3 energy=450.85296814755225 pbc="F F F"
Dy       0.00000000       0.00000000       0.00000000       0.00000000       0.00000000   -5351.71728516
Dy       0.00000000       0.00000000       0.87474747       0.00000000       0.00000000    5351.71728516
2
Properties=species:S:1:pos:R:3:forces:R:3 energy=228.42550876020886 pbc="F F F"
Dy       0.00000000       0.00000000       0.00000000       0.00000000       0.00000000   -2607.93994141
Dy       0.00000000       0.00000000       0.93434343       0.00000000       0.00000000    2607.93994141
2
Properties=species:S:1:pos:R:3:forces:R:3 energy=115.14048266608226 pbc="F F F"
Dy       0.00000000       0.00000000       0.00000000       0.00000000       0.00000000   -1267.13134766
Dy       0.00000000       0.00000000       0.99393939       0.00000000       0.00000000    1267.13134766
2
Properties=species:S:1:pos:R:3:forces:R:3 energy=65.38151874840119 pbc="F F F"
Dy       0.00000000       0.00000000       0.00000000       0.00000000       0.00000000    -502.38357544
Dy       0.00000000       0.00000000       1.05353535       0.00000000       0.00000000     502.38357544
2
Properties=species:S:1:pos:R:3:forces:R:3 energy=42.78956247974979 pbc="F F F"
Dy       0.00000000       0.00000000       0.00000000       0.00000000       0.00000000    -273.98095703
Dy       0.00000000       0.00000000       1.11313131       0.00000000       0.00000000     273.98095703
2
Properties=species:S:1:pos:R:3:forces:R:3 energy=30.626502427512836 pbc="F F F"
Dy       0.00000000       0.00000000       0.00000000       0.00000000       0.00000000    -151.02551270
Dy       0.00000000       0.00000000       1.17272727       0.00000000       0.00000000     151.02551270
2
Properties=species:S:1:pos:R:3:forces:R:3 energy=23.24016656642372 pbc="F F F"
Dy       0.00000000       0.00000000       0.00000000       0.00000000       0.00000000     -91.25331879
Dy       0.00000000       0.00000000       1.23232323       0.00000000       0.00000000      91.25331879
2
Properties=species:S:1:pos:R:3:forces:R:3 energy=18.701147840087913 pbc="F F F"
Dy       0.00000000       0.00000000       0.00000000       0.00000000       0.00000000     -58.30831909
Dy       0.00000000       0.00000000       1.29191919       0.00000000       0.00000000      58.30831909
2
Properties=species:S:1:pos:R:3:forces:R:3 energy=16.130387499313805 pbc="F F F"
Dy       0.00000000       0.00000000       0.00000000       0.00000000       0.00000000     -28.52102470
Dy       0.00000000       0.00000000       1.35151515       0.00000000       0.00000000      28.52102470
2
Properties=species:S:1:pos:R:3:forces:R:3 energy=14.725662465247876 pbc="F F F"
Dy       0.00000000       0.00000000       0.00000000       0.00000000       0.00000000     -22.81856155
Dy       0.00000000       0.00000000       1.41111111       0.00000000       0.00000000      22.81856155
2
Properties=species:S:1:pos:R:3:forces:R:3 energy=13.369340927028992 pbc="F F F"
Dy       0.00000000       0.00000000       0.00000000       0.00000000       0.00000000     -19.27880478
Dy       0.00000000       0.00000000       1.47070707       0.00000000       0.00000000      19.27880478
2
Properties=species:S:1:pos:R:3:forces:R:3 energy=12.58742782797238 pbc="F F F"
Dy       0.00000000       0.00000000       0.00000000       0.00000000       0.00000000      -9.64549351
Dy       0.00000000       0.00000000       1.53030303       0.00000000       0.00000000       9.64549351
2
Properties=species:S:1:pos:R:3:forces:R:3 energy=12.000647019156162 pbc="F F F"
Dy       0.00000000       0.00000000       0.00000000       0.00000000       0.00000000     -11.06268120
Dy       0.00000000       0.00000000       1.58989899       0.00000000       0.00000000      11.06268120
2
Properties=species:S:1:pos:R:3:forces:R:3 energy=11.257678461939898 pbc="F F F"
Dy       0.00000000       0.00000000       0.00000000       0.00000000       0.00000000     -13.71516037
Dy       0.00000000       0.00000000       1.64949495       0.00000000       0.00000000      13.71516037
2
Properties=species:S:1:pos:R:3:forces:R:3 energy=10.27588071948784 pbc="F F F"
Dy       0.00000000       0.00000000       0.00000000       0.00000000       0.00000000     -19.60839462
Dy       0.00000000       0.00000000       1.70909091       0.00000000       0.00000000      19.60839462
2
Properties=species:S:1:pos:R:3:forces:R:3 energy=9.021240309728105 pbc="F F F"
Dy       0.00000000       0.00000000       0.00000000       0.00000000       0.00000000     -21.80168152
Dy       0.00000000       0.00000000       1.76868687       0.00000000       0.00000000      21.80168152
2
Properties=species:S:1:pos:R:3:forces:R:3 energy=7.6898996827417365 pbc="F F F"
Dy       0.00000000       0.00000000       0.00000000       0.00000000       0.00000000     -22.55321693
Dy       0.00000000       0.00000000       1.82828283       0.00000000       0.00000000      22.55321693
2
Properties=species:S:1:pos:R:3:forces:R:3 energy=6.395727843347279 pbc="F F F"
Dy       0.00000000       0.00000000       0.00000000       0.00000000       0.00000000     -20.82497787
Dy       0.00000000       0.00000000       1.88787879       0.00000000       0.00000000      20.82497787
2
Properties=species:S:1:pos:R:3:forces:R:3 energy=5.202207430886711 pbc="F F F"
Dy       0.00000000       0.00000000       0.00000000       0.00000000       0.00000000     -19.13249969
Dy       0.00000000       0.00000000       1.94747475       0.00000000       0.00000000      19.13249969
2
Properties=species:S:1:pos:R:3:forces:R:3 energy=4.1250820557713475 pbc="F F F"
Dy       0.00000000       0.00000000       0.00000000       0.00000000       0.00000000     -16.99266434
Dy       0.00000000       0.00000000       2.00707071       0.00000000       0.00000000      16.99266434
2
Properties=species:S:1:pos:R:3:forces:R:3 energy=3.1730305851042977 pbc="F F F"
Dy       0.00000000       0.00000000       0.00000000       0.00000000       0.00000000     -14.99393082
Dy       0.00000000       0.00000000       2.06666667       0.00000000       0.00000000      14.99393082
2
Properties=species:S:1:pos:R:3:forces:R:3 energy=2.3420747584751926 pbc="F F F"
Dy       0.00000000       0.00000000       0.00000000       0.00000000       0.00000000     -12.83520508
Dy       0.00000000       0.00000000       2.12626263       0.00000000       0.00000000      12.83520508
2
Properties=species:S:1:pos:R:3:forces:R:3 energy=1.6357398630090136 pbc="F F F"
Dy       0.00000000       0.00000000       0.00000000       0.00000000       0.00000000     -11.01155186
Dy       0.00000000       0.00000000       2.18585859       0.00000000       0.00000000      11.01155186
2
Properties=species:S:1:pos:R:3:forces:R:3 energy=1.0224255294365983 pbc="F F F"
Dy       0.00000000       0.00000000       0.00000000       0.00000000       0.00000000      -9.57329655
Dy       0.00000000       0.00000000       2.24545455       0.00000000       0.00000000       9.57329655
2
Properties=species:S:1:pos:R:3:forces:R:3 energy=0.4928550475723761 pbc="F F F"
Dy       0.00000000       0.00000000       0.00000000       0.00000000       0.00000000      -8.19689083
Dy       0.00000000       0.00000000       2.30505051       0.00000000       0.00000000       8.19689083
2
Properties=species:S:1:pos:R:3:forces:R:3 energy=0.046201312359290383 pbc="F F F"
Dy       0.00000000       0.00000000       0.00000000       0.00000000       0.00000000      -6.82163668
Dy       0.00000000       0.00000000       2.36464646       0.00000000       0.00000000       6.82163668
2
Properties=species:S:1:pos:R:3:forces:R:3 energy=-0.3267016207833515 pbc="F F F"
Dy       0.00000000       0.00000000       0.00000000       0.00000000       0.00000000      -5.74084377
Dy       0.00000000       0.00000000       2.42424242       0.00000000       0.00000000       5.74084377
2
Properties=species:S:1:pos:R:3:forces:R:3 energy=-0.6423400498038224 pbc="F F F"
Dy       0.00000000       0.00000000       0.00000000       0.00000000       0.00000000      -4.87780523
Dy       0.00000000       0.00000000       2.48383838       0.00000000       0.00000000       4.87780523
2
Properties=species:S:1:pos:R:3:forces:R:3 energy=-0.9098683231355552 pbc="F F F"
Dy       0.00000000       0.00000000       0.00000000       0.00000000       0.00000000      -4.11717510
Dy       0.00000000       0.00000000       2.54343434       0.00000000       0.00000000       4.11717510
2
Properties=species:S:1:pos:R:3:forces:R:3 energy=-1.1372476539431382 pbc="F F F"
Dy       0.00000000       0.00000000       0.00000000       0.00000000       0.00000000      -3.55920672
Dy       0.00000000       0.00000000       2.60303030       0.00000000       0.00000000       3.55920672
2
Properties=species:S:1:pos:R:3:forces:R:3 energy=-1.3385675412058091 pbc="F F F"
Dy       0.00000000       0.00000000       0.00000000       0.00000000       0.00000000      -3.21918917
Dy       0.00000000       0.00000000       2.66262626       0.00000000       0.00000000       3.21918917
2
Properties=species:S:1:pos:R:3:forces:R:3 energy=-1.5216850321757622 pbc="F F F"
Dy       0.00000000       0.00000000       0.00000000       0.00000000       0.00000000      -2.92015123
Dy       0.00000000       0.00000000       2.72222222       0.00000000       0.00000000       2.92015123
2
Properties=species:S:1:pos:R:3:forces:R:3 energy=-1.685481191439176 pbc="F F F"
Dy       0.00000000       0.00000000       0.00000000       0.00000000       0.00000000      -2.56816363
Dy       0.00000000       0.00000000       2.78181818       0.00000000       0.00000000       2.56816363
2
Properties=species:S:1:pos:R:3:forces:R:3 energy=-1.827293873811532 pbc="F F F"
Dy       0.00000000       0.00000000       0.00000000       0.00000000       0.00000000      -2.19142985
Dy       0.00000000       0.00000000       2.84141414       0.00000000       0.00000000       2.19142985
2
Properties=species:S:1:pos:R:3:forces:R:3 energy=-1.9471416872691523 pbc="F F F"
Dy       0.00000000       0.00000000       0.00000000       0.00000000       0.00000000      -1.83683288
Dy       0.00000000       0.00000000       2.90101010       0.00000000       0.00000000       1.83683288
2
Properties=species:S:1:pos:R:3:forces:R:3 energy=-2.0470523908185436 pbc="F F F"
Dy       0.00000000       0.00000000       0.00000000       0.00000000       0.00000000      -1.52252150
Dy       0.00000000       0.00000000       2.96060606       0.00000000       0.00000000       1.52252150
2
Properties=species:S:1:pos:R:3:forces:R:3 energy=-2.1292263965313487 pbc="F F F"
Dy       0.00000000       0.00000000       0.00000000       0.00000000       0.00000000      -1.23912239
Dy       0.00000000       0.00000000       3.02020202       0.00000000       0.00000000       1.23912239
2
Properties=species:S:1:pos:R:3:forces:R:3 energy=-2.195186792302655 pbc="F F F"
Dy       0.00000000       0.00000000       0.00000000       0.00000000       0.00000000      -0.97867155
Dy       0.00000000       0.00000000       3.07979798       0.00000000       0.00000000       0.97867155
2
Properties=species:S:1:pos:R:3:forces:R:3 energy=-2.246477558163492 pbc="F F F"
Dy       0.00000000       0.00000000       0.00000000       0.00000000       0.00000000      -0.74839550
Dy       0.00000000       0.00000000       3.13939394       0.00000000       0.00000000       0.74839550
2
Properties=species:S:1:pos:R:3:forces:R:3 energy=-2.285124178304363 pbc="F F F"
Dy       0.00000000       0.00000000       0.00000000       0.00000000       0.00000000      -0.55463904
Dy       0.00000000       0.00000000       3.19898990       0.00000000       0.00000000       0.55463904
2
Properties=species:S:1:pos:R:3:forces:R:3 energy=-2.3132644677444927 pbc="F F F"
Dy       0.00000000       0.00000000       0.00000000       0.00000000       0.00000000      -0.39491448
Dy       0.00000000       0.00000000       3.25858586       0.00000000       0.00000000       0.39491448
2
Properties=species:S:1:pos:R:3:forces:R:3 energy=-2.3327444044909957 pbc="F F F"
Dy       0.00000000       0.00000000       0.00000000       0.00000000       0.00000000      -0.26289898
Dy       0.00000000       0.00000000       3.31818182       0.00000000       0.00000000       0.26289898
2
Properties=species:S:1:pos:R:3:forces:R:3 energy=-2.3450520852565617 pbc="F F F"
Dy       0.00000000       0.00000000       0.00000000       0.00000000       0.00000000      -0.15374839
Dy       0.00000000       0.00000000       3.37777778       0.00000000       0.00000000       0.15374839
2
Properties=species:S:1:pos:R:3:forces:R:3 energy=-2.3514581436671635 pbc="F F F"
Dy       0.00000000       0.00000000       0.00000000       0.00000000       0.00000000      -0.06408994
Dy       0.00000000       0.00000000       3.43737374       0.00000000       0.00000000       0.06408994
2
Properties=species:S:1:pos:R:3:forces:R:3 energy=-2.3529622558013177 pbc="F F F"
Dy       0.00000000       0.00000000       0.00000000       0.00000000       0.00000000       0.01192300
Dy       0.00000000       0.00000000       3.49696970       0.00000000       0.00000000      -0.01192300
2
Properties=species:S:1:pos:R:3:forces:R:3 energy=-2.350156587364796 pbc="F F F"
Dy       0.00000000       0.00000000       0.00000000       0.00000000       0.00000000       0.08178183
Dy       0.00000000       0.00000000       3.55656566       0.00000000       0.00000000      -0.08178183
2
Properties=species:S:1:pos:R:3:forces:R:3 energy=-2.34324270307488 pbc="F F F"
Dy       0.00000000       0.00000000       0.00000000       0.00000000       0.00000000       0.15006171
Dy       0.00000000       0.00000000       3.61616162       0.00000000       0.00000000      -0.15006171
2
Properties=species:S:1:pos:R:3:forces:R:3 energy=-2.3322958264726963 pbc="F F F"
Dy       0.00000000       0.00000000       0.00000000       0.00000000       0.00000000       0.21700265
Dy       0.00000000       0.00000000       3.67575758       0.00000000       0.00000000      -0.21700265
2
Properties=species:S:1:pos:R:3:forces:R:3 energy=-2.317442882253074 pbc="F F F"
Dy       0.00000000       0.00000000       0.00000000       0.00000000       0.00000000       0.28067875
Dy       0.00000000       0.00000000       3.73535354       0.00000000       0.00000000      -0.28067875
2
Properties=species:S:1:pos:R:3:forces:R:3 energy=-2.2989431531002062 pbc="F F F"
Dy       0.00000000       0.00000000       0.00000000       0.00000000       0.00000000       0.33922544
Dy       0.00000000       0.00000000       3.79494949       0.00000000       0.00000000      -0.33922544
2
Properties=species:S:1:pos:R:3:forces:R:3 energy=-2.2771351526942785 pbc="F F F"
Dy       0.00000000       0.00000000       0.00000000       0.00000000       0.00000000       0.39155596
Dy       0.00000000       0.00000000       3.85454545       0.00000000       0.00000000      -0.39155596
2
Properties=species:S:1:pos:R:3:forces:R:3 energy=-2.252409821460302 pbc="F F F"
Dy       0.00000000       0.00000000       0.00000000       0.00000000       0.00000000       0.43715757
Dy       0.00000000       0.00000000       3.91414141       0.00000000       0.00000000      -0.43715757
2
Properties=species:S:1:pos:R:3:forces:R:3 energy=-2.225167687251606 pbc="F F F"
Dy       0.00000000       0.00000000       0.00000000       0.00000000       0.00000000       0.47584850
Dy       0.00000000       0.00000000       3.97373737       0.00000000       0.00000000      -0.47584850
2
Properties=species:S:1:pos:R:3:forces:R:3 energy=-2.19582373509173 pbc="F F F"
Dy       0.00000000       0.00000000       0.00000000       0.00000000       0.00000000       0.50776988
Dy       0.00000000       0.00000000       4.03333333       0.00000000       0.00000000      -0.50776988
2
Properties=species:S:1:pos:R:3:forces:R:3 energy=-2.1647701315127055 pbc="F F F"
Dy       0.00000000       0.00000000       0.00000000       0.00000000       0.00000000       0.53337324
Dy       0.00000000       0.00000000       4.09292929       0.00000000       0.00000000      -0.53337324
2
Properties=species:S:1:pos:R:3:forces:R:3 energy=-2.1323658545148194 pbc="F F F"
Dy       0.00000000       0.00000000       0.00000000       0.00000000       0.00000000       0.55320966
Dy       0.00000000       0.00000000       4.15252525       0.00000000       0.00000000      -0.55320966
2
Properties=species:S:1:pos:R:3:forces:R:3 energy=-2.098940546277745 pbc="F F F"
Dy       0.00000000       0.00000000       0.00000000       0.00000000       0.00000000       0.56761461
Dy       0.00000000       0.00000000       4.21212121       0.00000000       0.00000000      -0.56761461
2
Properties=species:S:1:pos:R:3:forces:R:3 energy=-2.0648164730123955 pbc="F F F"
Dy       0.00000000       0.00000000       0.00000000       0.00000000       0.00000000       0.57655883
Dy       0.00000000       0.00000000       4.27171717       0.00000000       0.00000000      -0.57655883
2
Properties=species:S:1:pos:R:3:forces:R:3 energy=-2.030331508179183 pbc="F F F"
Dy       0.00000000       0.00000000       0.00000000       0.00000000       0.00000000       0.57979608
Dy       0.00000000       0.00000000       4.33131313       0.00000000       0.00000000      -0.57979608
2
Properties=species:S:1:pos:R:3:forces:R:3 energy=-1.9958267537288386 pbc="F F F"
Dy       0.00000000       0.00000000       0.00000000       0.00000000       0.00000000       0.57715863
Dy       0.00000000       0.00000000       4.39090909       0.00000000       0.00000000      -0.57715863
2
Properties=species:S:1:pos:R:3:forces:R:3 energy=-1.961652293826531 pbc="F F F"
Dy       0.00000000       0.00000000       0.00000000       0.00000000       0.00000000       0.56881952
Dy       0.00000000       0.00000000       4.45050505       0.00000000       0.00000000      -0.56881952
2
Properties=species:S:1:pos:R:3:forces:R:3 energy=-1.9281301092594807 pbc="F F F"
Dy       0.00000000       0.00000000       0.00000000       0.00000000       0.00000000       0.55535787
Dy       0.00000000       0.00000000       4.51010101       0.00000000       0.00000000      -0.55535787
2
Properties=species:S:1:pos:R:3:forces:R:3 energy=-1.8955416606639135 pbc="F F F"
Dy       0.00000000       0.00000000       0.00000000       0.00000000       0.00000000       0.53766912
Dy       0.00000000       0.00000000       4.56969697       0.00000000       0.00000000      -0.53766912
2
Properties=species:S:1:pos:R:3:forces:R:3 energy=-1.8641089480872626 pbc="F F F"
Dy       0.00000000       0.00000000       0.00000000       0.00000000       0.00000000       0.51681638
Dy       0.00000000       0.00000000       4.62929293       0.00000000       0.00000000      -0.51681638
2
Properties=species:S:1:pos:R:3:forces:R:3 energy=-1.8339839255360237 pbc="F F F"
Dy       0.00000000       0.00000000       0.00000000       0.00000000       0.00000000       0.49391842
Dy       0.00000000       0.00000000       4.68888889       0.00000000       0.00000000      -0.49391842
2
Properties=species:S:1:pos:R:3:forces:R:3 energy=-1.8052553604296542 pbc="F F F"
Dy       0.00000000       0.00000000       0.00000000       0.00000000       0.00000000       0.47007757
Dy       0.00000000       0.00000000       4.74848485       0.00000000       0.00000000      -0.47007757
2
Properties=species:S:1:pos:R:3:forces:R:3 energy=-1.7779505762224548 pbc="F F F"
Dy       0.00000000       0.00000000       0.00000000       0.00000000       0.00000000       0.44634911
Dy       0.00000000       0.00000000       4.80808081       0.00000000       0.00000000      -0.44634911
2
Properties=species:S:1:pos:R:3:forces:R:3 energy=-1.75203276877866 pbc="F F F"
Dy       0.00000000       0.00000000       0.00000000       0.00000000       0.00000000       0.42367488
Dy       0.00000000       0.00000000       4.86767677       0.00000000       0.00000000      -0.42367488
2
Properties=species:S:1:pos:R:3:forces:R:3 energy=-1.727418096482403 pbc="F F F"
Dy       0.00000000       0.00000000       0.00000000       0.00000000       0.00000000       0.40277091
Dy       0.00000000       0.00000000       4.92727273       0.00000000       0.00000000      -0.40277091
2
Properties=species:S:1:pos:R:3:forces:R:3 energy=-1.70398418727883 pbc="F F F"
Dy       0.00000000       0.00000000       0.00000000       0.00000000       0.00000000       0.38394743
Dy       0.00000000       0.00000000       4.98686869       0.00000000       0.00000000      -0.38394743
2
Properties=species:S:1:pos:R:3:forces:R:3 energy=-1.6816150564016372 pbc="F F F"
Dy       0.00000000       0.00000000       0.00000000       0.00000000       0.00000000       0.36701089
Dy       0.00000000       0.00000000       5.04646465       0.00000000       0.00000000      -0.36701089
2
Properties=species:S:1:pos:R:3:forces:R:3 energy=-1.6602209181218084 pbc="F F F"
Dy       0.00000000       0.00000000       0.00000000       0.00000000       0.00000000       0.35119352
Dy       0.00000000       0.00000000       5.10606061       0.00000000       0.00000000      -0.35119352
2
Properties=species:S:1:pos:R:3:forces:R:3 energy=-1.6397583016072808 pbc="F F F"
Dy       0.00000000       0.00000000       0.00000000       0.00000000       0.00000000       0.33526814
Dy       0.00000000       0.00000000       5.16565657       0.00000000       0.00000000      -0.33526814
2
Properties=species:S:1:pos:R:3:forces:R:3 energy=-1.620284296317381 pbc="F F F"
Dy       0.00000000       0.00000000       0.00000000       0.00000000       0.00000000       0.31779706
Dy       0.00000000       0.00000000       5.22525253       0.00000000       0.00000000      -0.31779706
2
Properties=species:S:1:pos:R:3:forces:R:3 energy=-1.601937307454103 pbc="F F F"
Dy       0.00000000       0.00000000       0.00000000       0.00000000       0.00000000       0.29742143
Dy       0.00000000       0.00000000       5.28484848       0.00000000       0.00000000      -0.29742143
2
Properties=species:S:1:pos:R:3:forces:R:3 energy=-1.5849132584537067 pbc="F F F"
Dy       0.00000000       0.00000000       0.00000000       0.00000000       0.00000000       0.27323300
Dy       0.00000000       0.00000000       5.34444444       0.00000000       0.00000000      -0.27323300
2
Properties=species:S:1:pos:R:3:forces:R:3 energy=-1.5694492011252987 pbc="F F F"
Dy       0.00000000       0.00000000       0.00000000       0.00000000       0.00000000       0.24499947
Dy       0.00000000       0.00000000       5.40404040       0.00000000       0.00000000      -0.24499947
2
Properties=species:S:1:pos:R:3:forces:R:3 energy=-1.5557764969103092 pbc="F F F"
Dy       0.00000000       0.00000000       0.00000000       0.00000000       0.00000000       0.21331415
Dy       0.00000000       0.00000000       5.46363636       0.00000000       0.00000000      -0.21331415
2
Properties=species:S:1:pos:R:3:forces:R:3 energy=-1.544070189780346 pbc="F F F"
Dy       0.00000000       0.00000000       0.00000000       0.00000000       0.00000000       0.17952153
Dy       0.00000000       0.00000000       5.52323232       0.00000000       0.00000000      -0.17952153
2
Properties=species:S:1:pos:R:3:forces:R:3 energy=-1.5343859940402238 pbc="F F F"
Dy       0.00000000       0.00000000       0.00000000       0.00000000       0.00000000       0.14556271
Dy       0.00000000       0.00000000       5.58282828       0.00000000       0.00000000      -0.14556271
2
Properties=species:S:1:pos:R:3:forces:R:3 energy=-1.5266792030875425 pbc="F F F"
Dy       0.00000000       0.00000000       0.00000000       0.00000000       0.00000000       0.11363773
Dy       0.00000000       0.00000000       5.64242424       0.00000000       0.00000000      -0.11363773
2
Properties=species:S:1:pos:R:3:forces:R:3 energy=-1.5207579657068255 pbc="F F F"
Dy       0.00000000       0.00000000       0.00000000       0.00000000       0.00000000       0.08583054
Dy       0.00000000       0.00000000       5.70202020       0.00000000       0.00000000      -0.08583054
2
Properties=species:S:1:pos:R:3:forces:R:3 energy=-1.5163337040954046 pbc="F F F"
Dy       0.00000000       0.00000000       0.00000000       0.00000000       0.00000000       0.06376077
Dy       0.00000000       0.00000000       5.76161616       0.00000000       0.00000000      -0.06376077
2
Properties=species:S:1:pos:R:3:forces:R:3 energy=-1.5130277705767012 pbc="F F F"
Dy       0.00000000       0.00000000       0.00000000       0.00000000       0.00000000       0.04821354
Dy       0.00000000       0.00000000       5.82121212       0.00000000       0.00000000      -0.04821354
2
Properties=species:S:1:pos:R:3:forces:R:3 energy=-1.510460069619566 pbc="F F F"
Dy       0.00000000       0.00000000       0.00000000       0.00000000       0.00000000       0.03900184
Dy       0.00000000       0.00000000       5.88080808       0.00000000       0.00000000      -0.03900184
2
Properties=species:S:1:pos:R:3:forces:R:3 energy=-1.508278558385643 pbc="F F F"
Dy       0.00000000       0.00000000       0.00000000       0.00000000       0.00000000       0.03482811
Dy       0.00000000       0.00000000       5.94040404       0.00000000       0.00000000      -0.03482811
2
Properties=species:S:1:pos:R:3:forces:R:3 energy=-1.506249918649339 pbc="F F F"
Dy       0.00000000       0.00000000       0.00000000       0.00000000       0.00000000       0.03349671
Dy       0.00000000       0.00000000       6.00000000       0.00000000       0.00000000      -0.03349671
