2
Properties=species:S:1:pos:R:3:forces:R:3 energy=653571.9507653501 pbc="F F F"
Er       0.00000000       0.00000000       0.00000000       0.00000000       0.00000000 -3627315.00000000
Er       0.00000000       0.00000000       0.10000000       0.00000000       0.00000000 3627315.00000000
2
Properties=species:S:1:pos:R:3:forces:R:3 energy=432000.66951535014 pbc="F F F"
Er       0.00000000       0.00000000       0.00000000       0.00000000       0.00000000 -3542146.25000000
Er       0.00000000       0.00000000       0.15959596       0.00000000       0.00000000 3542146.25000000
2
Properties=species:S:1:pos:R:3:forces:R:3 energy=250963.81014035014 pbc="F F F"
Er       0.00000000       0.00000000       0.00000000       0.00000000       0.00000000 -2476300.75000000
Er       0.00000000       0.00000000       0.21919192       0.00000000       0.00000000 2476300.75000000
2
Properties=species:S:1:pos:R:3:forces:R:3 energy=134690.35701535014 pbc="F F F"
Er       0.00000000       0.00000000       0.00000000       0.00000000       0.00000000 -1487579.75000000
Er       0.00000000       0.00000000       0.27878788       0.00000000       0.00000000 1487579.75000000
2
Properties=species:S:1:pos:R:3:forces:R:3 energy=67108.98201535015 pbc="F F F"
Er       0.00000000       0.00000000       0.00000000       0.00000000       0.00000000 -725720.56250000
Er       0.00000000       0.00000000       0.33838384       0.00000000       0.00000000  725720.56250000
2
Properties=species:S:1:pos:R:3:forces:R:3 energy=42710.89607785015 pbc="F F F"
Er       0.00000000       0.00000000       0.00000000       0.00000000       0.00000000  189607.14062500
Er       0.00000000       0.00000000       0.39797980       0.00000000       0.00000000 -189607.14062500
2
Properties=species:S:1:pos:R:3:forces:R:3 energy=24860.648030987817 pbc="F F F"
Er       0.00000000       0.00000000       0.00000000       0.00000000       0.00000000 -546120.00000000
Er       0.00000000       0.00000000       0.45757576       0.00000000       0.00000000  546120.00000000
2
Properties=species:S:1:pos:R:3:forces:R:3 energy=3594.1302087348636 pbc="F F F"
Er       0.00000000       0.00000000       0.00000000       0.00000000       0.00000000 -101228.36718750
Er       0.00000000       0.00000000       0.51717172       0.00000000       0.00000000  101228.36718750
2
Properties=species:S:1:pos:R:3:forces:R:3 energy=1205.3473718461437 pbc="F F F"
Er       0.00000000       0.00000000       0.00000000       0.00000000       0.00000000  -25983.65039062
Er       0.00000000       0.00000000       0.57676768       0.00000000       0.00000000   25983.65039062
2
Properties=species:S:1:pos:R:3:forces:R:3 energy=-501.1182653228737 pbc="F F F"
Er       0.00000000       0.00000000       0.00000000       0.00000000       0.00000000    6555.19335938
Er       0.00000000       0.00000000       0.63636364       0.00000000       0.00000000   -6555.19335938
2
Properties=species:S:1:pos:R:3:forces:R:3 energy=-287.62739000270534 pbc="F F F"
Er       0.00000000       0.00000000       0.00000000       0.00000000       0.00000000    1185.24426270
Er       0.00000000       0.00000000       0.69595960       0.00000000       0.00000000   -1185.24426270
2
Properties=species:S:1:pos:R:3:forces:R:3 energy=-199.76392555853758 pbc="F F F"
Er       0.00000000       0.00000000       0.00000000       0.00000000       0.00000000    1332.05651855
Er       0.00000000       0.00000000       0.75555556       0.00000000       0.00000000   -1332.05651855
2
Properties=species:S:1:pos:R:3:forces:R:3 energy=-136.76041588499774 pbc="F F F"
Er       0.00000000       0.00000000       0.00000000       0.00000000       0.00000000     827.25518799
Er       0.00000000       0.00000000       0.81515152       0.00000000       0.00000000    -827.25518799
2
Properties=species:S:1:pos:R:3:forces:R:3 energy=-72.0237137042538 pbc="F F F"
Er       0.00000000       0.00000000       0.00000000       0.00000000       0.00000000    1093.17932129
Er       0.00000000       0.00000000       0.87474747       0.00000000       0.00000000   -1093.17932129
2
Properties=species:S:1:pos:R:3:forces:R:3 energy=-19.04457788683721 pbc="F F F"
Er       0.00000000       0.00000000       0.00000000       0.00000000       0.00000000     656.38018799
Er       0.00000000       0.00000000       0.93434343       0.00000000       0.00000000    -656.38018799
2
Properties=species:S:1:pos:R:3:forces:R:3 energy=9.34773840854959 pbc="F F F"
Er       0.00000000       0.00000000       0.00000000       0.00000000       0.00000000     204.51306152
Er       0.00000000       0.00000000       0.99393939       0.00000000       0.00000000    -204.51306152
2
Properties=species:S:1:pos:R:3:forces:R:3 energy=13.157654521360115 pbc="F F F"
Er       0.00000000       0.00000000       0.00000000       0.00000000       0.00000000     -14.77794266
Er       0.00000000       0.00000000       1.05353535       0.00000000       0.00000000      14.77794266
2
Properties=species:S:1:pos:R:3:forces:R:3 energy=14.192452962765751 pbc="F F F"
Er       0.00000000       0.00000000       0.00000000       0.00000000       0.00000000      30.70126724
Er       0.00000000       0.00000000       1.11313131       0.00000000       0.00000000     -30.70126724
2
Properties=species:S:1:pos:R:3:forces:R:3 energy=14.792992230253018 pbc="F F F"
Er       0.00000000       0.00000000       0.00000000       0.00000000       0.00000000      19.33849525
Er       0.00000000       0.00000000       1.17272727       0.00000000       0.00000000     -19.33849525
2
Properties=species:S:1:pos:R:3:forces:R:3 energy=15.867317202241837 pbc="F F F"
Er       0.00000000       0.00000000       0.00000000       0.00000000       0.00000000      22.42538071
Er       0.00000000       0.00000000       1.23232323       0.00000000       0.00000000     -22.42538071
2
Properties=species:S:1:pos:R:3:forces:R:3 energy=16.620407851305348 pbc="F F F"
Er       0.00000000       0.00000000       0.00000000       0.00000000       0.00000000      -6.59603357
Er       0.00000000       0.00000000       1.29191919       0.00000000       0.00000000       6.59603357
2
Properties=species:S:1:pos:R:3:forces:R:3 energy=15.594087615274702 pbc="F F F"
Er       0.00000000       0.00000000       0.00000000       0.00000000       0.00000000     -23.83117867
Er       0.00000000       0.00000000       1.35151515       0.00000000       0.00000000      23.83117867
2
Properties=species:S:1:pos:R:3:forces:R:3 energy=14.051226481105266 pbc="F F F"
Er       0.00000000       0.00000000       0.00000000       0.00000000       0.00000000     -26.50722122
Er       0.00000000       0.00000000       1.41111111       0.00000000       0.00000000      26.50722122
2
Properties=species:S:1:pos:R:3:forces:R:3 energy=12.493368510871742 pbc="F F F"
Er       0.00000000       0.00000000       0.00000000       0.00000000       0.00000000     -24.98953056
Er       0.00000000       0.00000000       1.47070707       0.00000000       0.00000000      24.98953056
2
Properties=species:S:1:pos:R:3:forces:R:3 energy=11.187985182777448 pbc="F F F"
Er       0.00000000       0.00000000       0.00000000       0.00000000       0.00000000     -18.89540100
Er       0.00000000       0.00000000       1.53030303       0.00000000       0.00000000      18.89540100
2
Properties=species:S:1:pos:R:3:forces:R:3 energy=10.186225979150109 pbc="F F F"
Er       0.00000000       0.00000000       0.00000000       0.00000000       0.00000000     -15.80237198
Er       0.00000000       0.00000000       1.58989899       0.00000000       0.00000000      15.80237198
2
Properties=species:S:1:pos:R:3:forces:R:3 energy=9.234402277803198 pbc="F F F"
Er       0.00000000       0.00000000       0.00000000       0.00000000       0.00000000     -15.64336681
Er       0.00000000       0.00000000       1.64949495       0.00000000       0.00000000      15.64336681
2
Properties=species:S:1:pos:R:3:forces:R:3 energy=8.2693257159496 pbc="F F F"
Er       0.00000000       0.00000000       0.00000000       0.00000000       0.00000000     -17.18186378
Er       0.00000000       0.00000000       1.70909091       0.00000000       0.00000000      17.18186378
2
Properties=species:S:1:pos:R:3:forces:R:3 energy=7.2227000765061 pbc="F F F"
Er       0.00000000       0.00000000       0.00000000       0.00000000       0.00000000     -17.72615242
Er       0.00000000       0.00000000       1.76868687       0.00000000       0.00000000      17.72615242
2
Properties=species:S:1:pos:R:3:forces:R:3 energy=6.155095376082065 pbc="F F F"
Er       0.00000000       0.00000000       0.00000000       0.00000000       0.00000000     -17.90289688
Er       0.00000000       0.00000000       1.82828283       0.00000000       0.00000000      17.90289688
2
Properties=species:S:1:pos:R:3:forces:R:3 energy=5.130623603040572 pbc="F F F"
Er       0.00000000       0.00000000       0.00000000       0.00000000       0.00000000     -16.49511337
Er       0.00000000       0.00000000       1.88787879       0.00000000       0.00000000      16.49511337
2
Properties=species:S:1:pos:R:3:forces:R:3 energy=4.183268292083366 pbc="F F F"
Er       0.00000000       0.00000000       0.00000000       0.00000000       0.00000000     -15.19929218
Er       0.00000000       0.00000000       1.94747475       0.00000000       0.00000000      15.19929218
2
Properties=species:S:1:pos:R:3:forces:R:3 energy=3.3270030340905126 pbc="F F F"
Er       0.00000000       0.00000000       0.00000000       0.00000000       0.00000000     -13.51192093
Er       0.00000000       0.00000000       2.00707071       0.00000000       0.00000000      13.51192093
2
Properties=species:S:1:pos:R:3:forces:R:3 energy=2.5679336448455907 pbc="F F F"
Er       0.00000000       0.00000000       0.00000000       0.00000000       0.00000000     -12.02891922
Er       0.00000000       0.00000000       2.06666667       0.00000000       0.00000000      12.02891922
2
Properties=species:S:1:pos:R:3:forces:R:3 energy=1.8951762575279794 pbc="F F F"
Er       0.00000000       0.00000000       0.00000000       0.00000000       0.00000000     -10.49120808
Er       0.00000000       0.00000000       2.12626263       0.00000000       0.00000000      10.49120808
2
Properties=species:S:1:pos:R:3:forces:R:3 energy=1.3118651654642217 pbc="F F F"
Er       0.00000000       0.00000000       0.00000000       0.00000000       0.00000000      -9.20357609
Er       0.00000000       0.00000000       2.18585859       0.00000000       0.00000000       9.20357609
2
Properties=species:S:1:pos:R:3:forces:R:3 energy=0.7931128241993188 pbc="F F F"
Er       0.00000000       0.00000000       0.00000000       0.00000000       0.00000000      -8.19585323
Er       0.00000000       0.00000000       2.24545455       0.00000000       0.00000000       8.19585323
2
Properties=species:S:1:pos:R:3:forces:R:3 energy=0.33421250552934223 pbc="F F F"
Er       0.00000000       0.00000000       0.00000000       0.00000000       0.00000000      -7.20039034
Er       0.00000000       0.00000000       2.30505051       0.00000000       0.00000000       7.20039034
2
Properties=species:S:1:pos:R:3:forces:R:3 energy=-0.06413134533577092 pbc="F F F"
Er       0.00000000       0.00000000       0.00000000       0.00000000       0.00000000      -6.18521929
Er       0.00000000       0.00000000       2.36464646       0.00000000       0.00000000       6.18521929
2
Properties=species:S:1:pos:R:3:forces:R:3 energy=-0.40719848815122367 pbc="F F F"
Er       0.00000000       0.00000000       0.00000000       0.00000000       0.00000000      -5.36106253
Er       0.00000000       0.00000000       2.42424242       0.00000000       0.00000000       5.36106253
2
Properties=species:S:1:pos:R:3:forces:R:3 energy=-0.7065381629708509 pbc="F F F"
Er       0.00000000       0.00000000       0.00000000       0.00000000       0.00000000      -4.70315361
Er       0.00000000       0.00000000       2.48383838       0.00000000       0.00000000       4.70315361
2
Properties=species:S:1:pos:R:3:forces:R:3 energy=-0.9677512897112901 pbc="F F F"
Er       0.00000000       0.00000000       0.00000000       0.00000000       0.00000000      -4.05885172
Er       0.00000000       0.00000000       2.54343434       0.00000000       0.00000000       4.05885172
2
Properties=species:S:1:pos:R:3:forces:R:3 energy=-1.1919622410479676 pbc="F F F"
Er       0.00000000       0.00000000       0.00000000       0.00000000       0.00000000      -3.49266982
Er       0.00000000       0.00000000       2.60303030       0.00000000       0.00000000       3.49266982
2
Properties=species:S:1:pos:R:3:forces:R:3 energy=-1.3869474073974177 pbc="F F F"
Er       0.00000000       0.00000000       0.00000000       0.00000000       0.00000000      -3.06596971
Er       0.00000000       0.00000000       2.66262626       0.00000000       0.00000000       3.06596971
2
Properties=species:S:1:pos:R:3:forces:R:3 energy=-1.5579098744308737 pbc="F F F"
Er       0.00000000       0.00000000       0.00000000       0.00000000       0.00000000      -2.66780925
Er       0.00000000       0.00000000       2.72222222       0.00000000       0.00000000       2.66780925
2
Properties=species:S:1:pos:R:3:forces:R:3 energy=-1.7043304411666471 pbc="F F F"
Er       0.00000000       0.00000000       0.00000000       0.00000000       0.00000000      -2.24311495
Er       0.00000000       0.00000000       2.78181818       0.00000000       0.00000000       2.24311495
2
Properties=species:S:1:pos:R:3:forces:R:3 energy=-1.8254487917477513 pbc="F F F"
Er       0.00000000       0.00000000       0.00000000       0.00000000       0.00000000      -1.82686687
Er       0.00000000       0.00000000       2.84141414       0.00000000       0.00000000       1.82686687
2
Properties=species:S:1:pos:R:3:forces:R:3 energy=-1.9229896068174048 pbc="F F F"
Er       0.00000000       0.00000000       0.00000000       0.00000000       0.00000000      -1.45548272
Er       0.00000000       0.00000000       2.90101010       0.00000000       0.00000000       1.45548272
2
Properties=species:S:1:pos:R:3:forces:R:3 energy=-1.9999882323117832 pbc="F F F"
Er       0.00000000       0.00000000       0.00000000       0.00000000       0.00000000      -1.13662231
Er       0.00000000       0.00000000       2.96060606       0.00000000       0.00000000       1.13662231
2
Properties=species:S:1:pos:R:3:forces:R:3 energy=-2.059277914567388 pbc="F F F"
Er       0.00000000       0.00000000       0.00000000       0.00000000       0.00000000      -0.85885847
Er       0.00000000       0.00000000       3.02020202       0.00000000       0.00000000       0.85885847
2
Properties=species:S:1:pos:R:3:forces:R:3 energy=-2.103030721523429 pbc="F F F"
Er       0.00000000       0.00000000       0.00000000       0.00000000       0.00000000      -0.61556774
Er       0.00000000       0.00000000       3.07979798       0.00000000       0.00000000       0.61556774
2
Properties=species:S:1:pos:R:3:forces:R:3 energy=-2.133468797020209 pbc="F F F"
Er       0.00000000       0.00000000       0.00000000       0.00000000       0.00000000      -0.41348383
Er       0.00000000       0.00000000       3.13939394       0.00000000       0.00000000       0.41348383
2
Properties=species:S:1:pos:R:3:forces:R:3 energy=-2.1532220773667943 pbc="F F F"
Er       0.00000000       0.00000000       0.00000000       0.00000000       0.00000000      -0.25677100
Er       0.00000000       0.00000000       3.19898990       0.00000000       0.00000000       0.25677100
2
Properties=species:S:1:pos:R:3:forces:R:3 energy=-2.164850497180823 pbc="F F F"
Er       0.00000000       0.00000000       0.00000000       0.00000000       0.00000000      -0.13889016
Er       0.00000000       0.00000000       3.25858586       0.00000000       0.00000000       0.13889016
2
Properties=species:S:1:pos:R:3:forces:R:3 energy=-2.1703075715839697 pbc="F F F"
Er       0.00000000       0.00000000       0.00000000       0.00000000       0.00000000      -0.04773837
Er       0.00000000       0.00000000       3.31818182       0.00000000       0.00000000       0.04773837
2
Properties=species:S:1:pos:R:3:forces:R:3 energy=-2.1708746907167473 pbc="F F F"
Er       0.00000000       0.00000000       0.00000000       0.00000000       0.00000000       0.02638711
Er       0.00000000       0.00000000       3.37777778       0.00000000       0.00000000      -0.02638711
2
Properties=species:S:1:pos:R:3:forces:R:3 energy=-2.1674032643158565 pbc="F F F"
Er       0.00000000       0.00000000       0.00000000       0.00000000       0.00000000       0.08850322
Er       0.00000000       0.00000000       3.43737374       0.00000000       0.00000000      -0.08850322
2
Properties=species:S:1:pos:R:3:forces:R:3 energy=-2.16047412803687 pbc="F F F"
Er       0.00000000       0.00000000       0.00000000       0.00000000       0.00000000       0.14307211
Er       0.00000000       0.00000000       3.49696970       0.00000000       0.00000000      -0.14307211
2
Properties=species:S:1:pos:R:3:forces:R:3 energy=-2.1503977555384686 pbc="F F F"
Er       0.00000000       0.00000000       0.00000000       0.00000000       0.00000000       0.19499986
Er       0.00000000       0.00000000       3.55656566       0.00000000       0.00000000      -0.19499986
2
Properties=species:S:1:pos:R:3:forces:R:3 energy=-2.1372354073718243 pbc="F F F"
Er       0.00000000       0.00000000       0.00000000       0.00000000       0.00000000       0.24678618
Er       0.00000000       0.00000000       3.61616162       0.00000000       0.00000000      -0.24678618
2
Properties=species:S:1:pos:R:3:forces:R:3 energy=-2.121002605734787 pbc="F F F"
Er       0.00000000       0.00000000       0.00000000       0.00000000       0.00000000       0.29771006
Er       0.00000000       0.00000000       3.67575758       0.00000000       0.00000000      -0.29771006
2
Properties=species:S:1:pos:R:3:forces:R:3 energy=-2.1018089888072504 pbc="F F F"
Er       0.00000000       0.00000000       0.00000000       0.00000000       0.00000000       0.34572372
Er       0.00000000       0.00000000       3.73535354       0.00000000       0.00000000      -0.34572372
2
Properties=species:S:1:pos:R:3:forces:R:3 energy=-2.0798807711189027 pbc="F F F"
Er       0.00000000       0.00000000       0.00000000       0.00000000       0.00000000       0.38920909
Er       0.00000000       0.00000000       3.79494949       0.00000000       0.00000000      -0.38920909
2
Properties=species:S:1:pos:R:3:forces:R:3 energy=-2.0555251028034416 pbc="F F F"
Er       0.00000000       0.00000000       0.00000000       0.00000000       0.00000000       0.42738196
Er       0.00000000       0.00000000       3.85454545       0.00000000       0.00000000      -0.42738196
2
Properties=species:S:1:pos:R:3:forces:R:3 energy=-2.0290530057126293 pbc="F F F"
Er       0.00000000       0.00000000       0.00000000       0.00000000       0.00000000       0.45997280
Er       0.00000000       0.00000000       3.91414141       0.00000000       0.00000000      -0.45997280
2
Properties=species:S:1:pos:R:3:forces:R:3 energy=-2.0008098213023287 pbc="F F F"
Er       0.00000000       0.00000000       0.00000000       0.00000000       0.00000000       0.48697442
Er       0.00000000       0.00000000       3.97373737       0.00000000       0.00000000      -0.48697442
2
Properties=species:S:1:pos:R:3:forces:R:3 energy=-1.971116222209064 pbc="F F F"
Er       0.00000000       0.00000000       0.00000000       0.00000000       0.00000000       0.50864702
Er       0.00000000       0.00000000       4.03333333       0.00000000       0.00000000      -0.50864702
2
Properties=species:S:1:pos:R:3:forces:R:3 energy=-1.9402767699762877 pbc="F F F"
Er       0.00000000       0.00000000       0.00000000       0.00000000       0.00000000       0.52553332
Er       0.00000000       0.00000000       4.09292929       0.00000000       0.00000000      -0.52553332
2
Properties=species:S:1:pos:R:3:forces:R:3 energy=-1.9085580058876828 pbc="F F F"
Er       0.00000000       0.00000000       0.00000000       0.00000000       0.00000000       0.53827506
Er       0.00000000       0.00000000       4.15252525       0.00000000       0.00000000      -0.53827506
2
Properties=species:S:1:pos:R:3:forces:R:3 energy=-1.8761933397159851 pbc="F F F"
Er       0.00000000       0.00000000       0.00000000       0.00000000       0.00000000       0.54730254
Er       0.00000000       0.00000000       4.21212121       0.00000000       0.00000000      -0.54730254
2
Properties=species:S:1:pos:R:3:forces:R:3 energy=-1.8433972978169315 pbc="F F F"
Er       0.00000000       0.00000000       0.00000000       0.00000000       0.00000000       0.55267042
Er       0.00000000       0.00000000       4.27171717       0.00000000       0.00000000      -0.55267042
2
Properties=species:S:1:pos:R:3:forces:R:3 energy=-1.8103961674202704 pbc="F F F"
Er       0.00000000       0.00000000       0.00000000       0.00000000       0.00000000       0.55413878
Er       0.00000000       0.00000000       4.33131313       0.00000000       0.00000000      -0.55413878
2
Properties=species:S:1:pos:R:3:forces:R:3 energy=-1.7774308893309327 pbc="F F F"
Er       0.00000000       0.00000000       0.00000000       0.00000000       0.00000000       0.55144638
Er       0.00000000       0.00000000       4.39090909       0.00000000       0.00000000      -0.55144638
2
Properties=species:S:1:pos:R:3:forces:R:3 energy=-1.7447494475414334 pbc="F F F"
Er       0.00000000       0.00000000       0.00000000       0.00000000       0.00000000       0.54452300
Er       0.00000000       0.00000000       4.45050505       0.00000000       0.00000000      -0.54452300
2
Properties=species:S:1:pos:R:3:forces:R:3 energy=-1.7126088779508124 pbc="F F F"
Er       0.00000000       0.00000000       0.00000000       0.00000000       0.00000000       0.53358734
Er       0.00000000       0.00000000       4.51010101       0.00000000       0.00000000      -0.53358734
2
Properties=species:S:1:pos:R:3:forces:R:3 energy=-1.681221811917763 pbc="F F F"
Er       0.00000000       0.00000000       0.00000000       0.00000000       0.00000000       0.51910543
Er       0.00000000       0.00000000       4.56969697       0.00000000       0.00000000      -0.51910543
2
Properties=species:S:1:pos:R:3:forces:R:3 energy=-1.650791926937089 pbc="F F F"
Er       0.00000000       0.00000000       0.00000000       0.00000000       0.00000000       0.50171345
Er       0.00000000       0.00000000       4.62929293       0.00000000       0.00000000      -0.50171345
2
Properties=species:S:1:pos:R:3:forces:R:3 energy=-1.621467165913047 pbc="F F F"
Er       0.00000000       0.00000000       0.00000000       0.00000000       0.00000000       0.48216236
Er       0.00000000       0.00000000       4.68888889       0.00000000       0.00000000      -0.48216236
2
Properties=species:S:1:pos:R:3:forces:R:3 energy=-1.59334933092331 pbc="F F F"
Er       0.00000000       0.00000000       0.00000000       0.00000000       0.00000000       0.46128896
Er       0.00000000       0.00000000       4.74848485       0.00000000       0.00000000      -0.46128896
2
Properties=species:S:1:pos:R:3:forces:R:3 energy=-1.5664931105377162 pbc="F F F"
Er       0.00000000       0.00000000       0.00000000       0.00000000       0.00000000       0.44001004
Er       0.00000000       0.00000000       4.80808081       0.00000000       0.00000000      -0.44001004
2
Properties=species:S:1:pos:R:3:forces:R:3 energy=-1.5408928170768617 pbc="F F F"
Er       0.00000000       0.00000000       0.00000000       0.00000000       0.00000000       0.41923749
Er       0.00000000       0.00000000       4.86767677       0.00000000       0.00000000      -0.41923749
2
Properties=species:S:1:pos:R:3:forces:R:3 energy=-1.5164956810317296 pbc="F F F"
Er       0.00000000       0.00000000       0.00000000       0.00000000       0.00000000       0.39973179
Er       0.00000000       0.00000000       4.92727273       0.00000000       0.00000000      -0.39973179
2
Properties=species:S:1:pos:R:3:forces:R:3 energy=-1.4932142044802945 pbc="F F F"
Er       0.00000000       0.00000000       0.00000000       0.00000000       0.00000000       0.38191420
Er       0.00000000       0.00000000       4.98686869       0.00000000       0.00000000      -0.38191420
2
Properties=species:S:1:pos:R:3:forces:R:3 energy=-1.4709472179502139 pbc="F F F"
Er       0.00000000       0.00000000       0.00000000       0.00000000       0.00000000       0.36570880
Er       0.00000000       0.00000000       5.04646465       0.00000000       0.00000000      -0.36570880
2
Properties=species:S:1:pos:R:3:forces:R:3 energy=-1.4496082942433484 pbc="F F F"
Er       0.00000000       0.00000000       0.00000000       0.00000000       0.00000000       0.35045487
Er       0.00000000       0.00000000       5.10606061       0.00000000       0.00000000      -0.35045487
2
Properties=species:S:1:pos:R:3:forces:R:3 energy=-1.4291735208506016 pbc="F F F"
Er       0.00000000       0.00000000       0.00000000       0.00000000       0.00000000       0.33500442
Er       0.00000000       0.00000000       5.16565657       0.00000000       0.00000000      -0.33500442
2
Properties=species:S:1:pos:R:3:forces:R:3 energy=-1.4097071604594422 pbc="F F F"
Er       0.00000000       0.00000000       0.00000000       0.00000000       0.00000000       0.31792840
Er       0.00000000       0.00000000       5.22525253       0.00000000       0.00000000      -0.31792840
2
Properties=species:S:1:pos:R:3:forces:R:3 energy=-1.3913414273882876 pbc="F F F"
Er       0.00000000       0.00000000       0.00000000       0.00000000       0.00000000       0.29787815
Er       0.00000000       0.00000000       5.28484848       0.00000000       0.00000000      -0.29787815
2
Properties=species:S:1:pos:R:3:forces:R:3 energy=-1.3742813509927498 pbc="F F F"
Er       0.00000000       0.00000000       0.00000000       0.00000000       0.00000000       0.27389660
Er       0.00000000       0.00000000       5.34444444       0.00000000       0.00000000      -0.27389660
2
Properties=species:S:1:pos:R:3:forces:R:3 energy=-1.3587768656846873 pbc="F F F"
Er       0.00000000       0.00000000       0.00000000       0.00000000       0.00000000       0.24572048
Er       0.00000000       0.00000000       5.40404040       0.00000000       0.00000000      -0.24572048
2
Properties=species:S:1:pos:R:3:forces:R:3 energy=-1.3450646938197035 pbc="F F F"
Er       0.00000000       0.00000000       0.00000000       0.00000000       0.00000000       0.21392542
Er       0.00000000       0.00000000       5.46363636       0.00000000       0.00000000      -0.21392542
2
Properties=species:S:1:pos:R:3:forces:R:3 energy=-1.3333271476322128 pbc="F F F"
Er       0.00000000       0.00000000       0.00000000       0.00000000       0.00000000       0.17987823
Er       0.00000000       0.00000000       5.52323232       0.00000000       0.00000000      -0.17987823
2
Properties=species:S:1:pos:R:3:forces:R:3 energy=-1.323633891745696 pbc="F F F"
Er       0.00000000       0.00000000       0.00000000       0.00000000       0.00000000       0.14554988
Er       0.00000000       0.00000000       5.58282828       0.00000000       0.00000000      -0.14554988
2
Properties=species:S:1:pos:R:3:forces:R:3 energy=-1.3159361197564932 pbc="F F F"
Er       0.00000000       0.00000000       0.00000000       0.00000000       0.00000000       0.11321981
Er       0.00000000       0.00000000       5.64242424       0.00000000       0.00000000      -0.11321981
2
Properties=species:S:1:pos:R:3:forces:R:3 energy=-1.3100560448093908 pbc="F F F"
Er       0.00000000       0.00000000       0.00000000       0.00000000       0.00000000       0.08502562
Er       0.00000000       0.00000000       5.70202020       0.00000000       0.00000000      -0.08502562
2
Properties=species:S:1:pos:R:3:forces:R:3 energy=-1.3056867855560244 pbc="F F F"
Er       0.00000000       0.00000000       0.00000000       0.00000000       0.00000000       0.06265010
Er       0.00000000       0.00000000       5.76161616       0.00000000       0.00000000      -0.06265010
2
Properties=species:S:1:pos:R:3:forces:R:3 energy=-1.302455219960741 pbc="F F F"
Er       0.00000000       0.00000000       0.00000000       0.00000000       0.00000000       0.04690721
Er       0.00000000       0.00000000       5.82121212       0.00000000       0.00000000      -0.04690721
2
Properties=species:S:1:pos:R:3:forces:R:3 energy=-1.2999697070302854 pbc="F F F"
Er       0.00000000       0.00000000       0.00000000       0.00000000       0.00000000       0.03760928
Er       0.00000000       0.00000000       5.88080808       0.00000000       0.00000000      -0.03760928
2
Properties=species:S:1:pos:R:3:forces:R:3 energy=-1.297870504839683 pbc="F F F"
Er       0.00000000       0.00000000       0.00000000       0.00000000       0.00000000       0.03343879
Er       0.00000000       0.00000000       5.94040404       0.00000000       0.00000000      -0.03343879
2
Properties=species:S:1:pos:R:3:forces:R:3 energy=-1.2959223212904427 pbc="F F F"
Er       0.00000000       0.00000000       0.00000000       0.00000000       0.00000000       0.03216203
Er       0.00000000       0.00000000       6.00000000       0.00000000       0.00000000      -0.03216203
