2
Properties=species:S:1:pos:R:3:forces:R:3 energy=-942309.7864751848 pbc="F F F"
Eu       0.00000000       0.00000000       0.00000000       0.00000000       0.00000000 5605758.00000000
Eu       0.00000000       0.00000000       0.10000000       0.00000000       0.00000000 -5605758.00000000
2
Properties=species:S:1:pos:R:3:forces:R:3 energy=-586396.2239751848 pbc="F F F"
Eu       0.00000000       0.00000000       0.00000000       0.00000000       0.00000000 5918303.50000000
Eu       0.00000000       0.00000000       0.15959596       0.00000000       0.00000000 -5918303.50000000
2
Properties=species:S:1:pos:R:3:forces:R:3 energy=-276396.28647518484 pbc="F F F"
Eu       0.00000000       0.00000000       0.00000000       0.00000000       0.00000000 4270533.00000000
Eu       0.00000000       0.00000000       0.21919192       0.00000000       0.00000000 -4270533.00000000
2
Properties=species:S:1:pos:R:3:forces:R:3 energy=-87999.13803768487 pbc="F F F"
Eu       0.00000000       0.00000000       0.00000000       0.00000000       0.00000000 2083687.37500000
Eu       0.00000000       0.00000000       0.27878788       0.00000000       0.00000000 -2083687.37500000
2
Properties=species:S:1:pos:R:3:forces:R:3 energy=-13728.026709556698 pbc="F F F"
Eu       0.00000000       0.00000000       0.00000000       0.00000000       0.00000000  575311.81250000
Eu       0.00000000       0.00000000       0.33838384       0.00000000       0.00000000 -575311.81250000
2
Properties=species:S:1:pos:R:3:forces:R:3 energy=-600.197058677792 pbc="F F F"
Eu       0.00000000       0.00000000       0.00000000       0.00000000       0.00000000   35982.38281250
Eu       0.00000000       0.00000000       0.39797980       0.00000000       0.00000000  -35982.38281250
2
Properties=species:S:1:pos:R:3:forces:R:3 energy=-16.10293674164079 pbc="F F F"
Eu       0.00000000       0.00000000       0.00000000       0.00000000       0.00000000     147.27381897
Eu       0.00000000       0.00000000       0.45757576       0.00000000       0.00000000    -147.27381897
2
Properties=species:S:1:pos:R:3:forces:R:3 energy=-13.443499558907536 pbc="F F F"
Eu       0.00000000       0.00000000       0.00000000       0.00000000       0.00000000      -1.77313936
Eu       0.00000000       0.00000000       0.51717172       0.00000000       0.00000000       1.77313936
2
Properties=species:S:1:pos:R:3:forces:R:3 energy=-15.367059698256805 pbc="F F F"
Eu       0.00000000       0.00000000       0.00000000       0.00000000       0.00000000     -42.75143433
Eu       0.00000000       0.00000000       0.57676768       0.00000000       0.00000000      42.75143433
2
Properties=species:S:1:pos:R:3:forces:R:3 energy=-19.54388520896198 pbc="F F F"
Eu       0.00000000       0.00000000       0.00000000       0.00000000       0.00000000     -93.22750092
Eu       0.00000000       0.00000000       0.63636364       0.00000000       0.00000000      93.22750092
2
Properties=species:S:1:pos:R:3:forces:R:3 energy=-23.240755993788056 pbc="F F F"
Eu       0.00000000       0.00000000       0.00000000       0.00000000       0.00000000     -29.69451904
Eu       0.00000000       0.00000000       0.69595960       0.00000000       0.00000000      29.69451904
2
Properties=species:S:1:pos:R:3:forces:R:3 energy=-24.6075753438237 pbc="F F F"
Eu       0.00000000       0.00000000       0.00000000       0.00000000       0.00000000     -18.31961632
Eu       0.00000000       0.00000000       0.75555556       0.00000000       0.00000000      18.31961632
2
Properties=species:S:1:pos:R:3:forces:R:3 energy=-25.51409424196706 pbc="F F F"
Eu       0.00000000       0.00000000       0.00000000       0.00000000       0.00000000     -20.54353142
Eu       0.00000000       0.00000000       0.81515152       0.00000000       0.00000000      20.54353142
2
Properties=species:S:1:pos:R:3:forces:R:3 energy=-26.510664768936643 pbc="F F F"
Eu       0.00000000       0.00000000       0.00000000       0.00000000       0.00000000     -12.70580387
Eu       0.00000000       0.00000000       0.87474747       0.00000000       0.00000000      12.70580387
2
Properties=species:S:1:pos:R:3:forces:R:3 energy=-26.91259262823567 pbc="F F F"
Eu       0.00000000       0.00000000       0.00000000       0.00000000       0.00000000       0.23533705
Eu       0.00000000       0.00000000       0.93434343       0.00000000       0.00000000      -0.23533705
2
Properties=species:S:1:pos:R:3:forces:R:3 energy=-26.500723461953985 pbc="F F F"
Eu       0.00000000       0.00000000       0.00000000       0.00000000       0.00000000      11.69666767
Eu       0.00000000       0.00000000       0.99393939       0.00000000       0.00000000     -11.69666767
2
Properties=species:S:1:pos:R:3:forces:R:3 energy=-25.79700511497025 pbc="F F F"
Eu       0.00000000       0.00000000       0.00000000       0.00000000       0.00000000      12.70745087
Eu       0.00000000       0.00000000       1.05353535       0.00000000       0.00000000     -12.70745087
2
Properties=species:S:1:pos:R:3:forces:R:3 energy=-24.891334730374897 pbc="F F F"
Eu       0.00000000       0.00000000       0.00000000       0.00000000       0.00000000      19.11502266
Eu       0.00000000       0.00000000       1.11313131       0.00000000       0.00000000     -19.11502266
2
Properties=species:S:1:pos:R:3:forces:R:3 energy=-23.639240176472075 pbc="F F F"
Eu       0.00000000       0.00000000       0.00000000       0.00000000       0.00000000      21.79754066
Eu       0.00000000       0.00000000       1.17272727       0.00000000       0.00000000     -21.79754066
2
Properties=species:S:1:pos:R:3:forces:R:3 energy=-22.216020125050754 pbc="F F F"
Eu       0.00000000       0.00000000       0.00000000       0.00000000       0.00000000      26.61609840
Eu       0.00000000       0.00000000       1.23232323       0.00000000       0.00000000     -26.61609840
2
Properties=species:S:1:pos:R:3:forces:R:3 energy=-20.480422042571618 pbc="F F F"
Eu       0.00000000       0.00000000       0.00000000       0.00000000       0.00000000      31.73803520
Eu       0.00000000       0.00000000       1.29191919       0.00000000       0.00000000     -31.73803520
2
Properties=species:S:1:pos:R:3:forces:R:3 energy=-18.641342534319346 pbc="F F F"
Eu       0.00000000       0.00000000       0.00000000       0.00000000       0.00000000      29.49133301
Eu       0.00000000       0.00000000       1.35151515       0.00000000       0.00000000     -29.49133301
2
Properties=species:S:1:pos:R:3:forces:R:3 energy=-16.958602519397353 pbc="F F F"
Eu       0.00000000       0.00000000       0.00000000       0.00000000       0.00000000      26.00944519
Eu       0.00000000       0.00000000       1.41111111       0.00000000       0.00000000     -26.00944519
2
Properties=species:S:1:pos:R:3:forces:R:3 energy=-15.64066181391775 pbc="F F F"
Eu       0.00000000       0.00000000       0.00000000       0.00000000       0.00000000      18.69704056
Eu       0.00000000       0.00000000       1.47070707       0.00000000       0.00000000     -18.69704056
2
Properties=species:S:1:pos:R:3:forces:R:3 energy=-14.641508458290842 pbc="F F F"
Eu       0.00000000       0.00000000       0.00000000       0.00000000       0.00000000      14.65546989
Eu       0.00000000       0.00000000       1.53030303       0.00000000       0.00000000     -14.65546989
2
Properties=species:S:1:pos:R:3:forces:R:3 energy=-13.957424998353051 pbc="F F F"
Eu       0.00000000       0.00000000       0.00000000       0.00000000       0.00000000       8.20487499
Eu       0.00000000       0.00000000       1.58989899       0.00000000       0.00000000      -8.20487499
2
Properties=species:S:1:pos:R:3:forces:R:3 energy=-13.602693600478263 pbc="F F F"
Eu       0.00000000       0.00000000       0.00000000       0.00000000       0.00000000       4.14786100
Eu       0.00000000       0.00000000       1.64949495       0.00000000       0.00000000      -4.14786100
2
Properties=species:S:1:pos:R:3:forces:R:3 energy=-13.463592366447141 pbc="F F F"
Eu       0.00000000       0.00000000       0.00000000       0.00000000       0.00000000       0.33515683
Eu       0.00000000       0.00000000       1.70909091       0.00000000       0.00000000      -0.33515683
2
Properties=species:S:1:pos:R:3:forces:R:3 energy=-13.544641658666473 pbc="F F F"
Eu       0.00000000       0.00000000       0.00000000       0.00000000       0.00000000      -2.76556993
Eu       0.00000000       0.00000000       1.76868687       0.00000000       0.00000000       2.76556993
2
Properties=species:S:1:pos:R:3:forces:R:3 energy=-13.767018302005454 pbc="F F F"
Eu       0.00000000       0.00000000       0.00000000       0.00000000       0.00000000      -4.43900299
Eu       0.00000000       0.00000000       1.82828283       0.00000000       0.00000000       4.43900299
2
Properties=species:S:1:pos:R:3:forces:R:3 energy=-14.058627315810275 pbc="F F F"
Eu       0.00000000       0.00000000       0.00000000       0.00000000       0.00000000      -5.38749790
Eu       0.00000000       0.00000000       1.88787879       0.00000000       0.00000000       5.38749790
2
Properties=species:S:1:pos:R:3:forces:R:3 energy=-14.41284438958016 pbc="F F F"
Eu       0.00000000       0.00000000       0.00000000       0.00000000       0.00000000      -6.41928101
Eu       0.00000000       0.00000000       1.94747475       0.00000000       0.00000000       6.41928101
2
Properties=species:S:1:pos:R:3:forces:R:3 energy=-14.809542169846557 pbc="F F F"
Eu       0.00000000       0.00000000       0.00000000       0.00000000       0.00000000      -6.77498245
Eu       0.00000000       0.00000000       2.00707071       0.00000000       0.00000000       6.77498245
2
Properties=species:S:1:pos:R:3:forces:R:3 energy=-15.216761899194333 pbc="F F F"
Eu       0.00000000       0.00000000       0.00000000       0.00000000       0.00000000      -6.86717176
Eu       0.00000000       0.00000000       2.06666667       0.00000000       0.00000000       6.86717176
2
Properties=species:S:1:pos:R:3:forces:R:3 energy=-15.614043391818512 pbc="F F F"
Eu       0.00000000       0.00000000       0.00000000       0.00000000       0.00000000      -6.34820223
Eu       0.00000000       0.00000000       2.12626263       0.00000000       0.00000000       6.34820223
2
Properties=species:S:1:pos:R:3:forces:R:3 energy=-15.970820356176226 pbc="F F F"
Eu       0.00000000       0.00000000       0.00000000       0.00000000       0.00000000      -5.64409971
Eu       0.00000000       0.00000000       2.18585859       0.00000000       0.00000000       5.64409971
2
Properties=species:S:1:pos:R:3:forces:R:3 energy=-16.28368519989336 pbc="F F F"
Eu       0.00000000       0.00000000       0.00000000       0.00000000       0.00000000      -4.82112360
Eu       0.00000000       0.00000000       2.24545455       0.00000000       0.00000000       4.82112360
2
Properties=species:S:1:pos:R:3:forces:R:3 energy=-16.545630374778106 pbc="F F F"
Eu       0.00000000       0.00000000       0.00000000       0.00000000       0.00000000      -3.97640419
Eu       0.00000000       0.00000000       2.30505051       0.00000000       0.00000000       3.97640419
2
Properties=species:S:1:pos:R:3:forces:R:3 energy=-16.757594448413283 pbc="F F F"
Eu       0.00000000       0.00000000       0.00000000       0.00000000       0.00000000      -3.15021801
Eu       0.00000000       0.00000000       2.36464646       0.00000000       0.00000000       3.15021801
2
Properties=species:S:1:pos:R:3:forces:R:3 energy=-16.925017419854147 pbc="F F F"
Eu       0.00000000       0.00000000       0.00000000       0.00000000       0.00000000      -2.50536776
Eu       0.00000000       0.00000000       2.42424242       0.00000000       0.00000000       2.50536776
2
Properties=species:S:1:pos:R:3:forces:R:3 energy=-17.059779016663175 pbc="F F F"
Eu       0.00000000       0.00000000       0.00000000       0.00000000       0.00000000      -2.03720784
Eu       0.00000000       0.00000000       2.48383838       0.00000000       0.00000000       2.03720784
2
Properties=species:S:1:pos:R:3:forces:R:3 energy=-17.16898336457186 pbc="F F F"
Eu       0.00000000       0.00000000       0.00000000       0.00000000       0.00000000      -1.63682604
Eu       0.00000000       0.00000000       2.54343434       0.00000000       0.00000000       1.63682604
2
Properties=species:S:1:pos:R:3:forces:R:3 energy=-17.257420008914657 pbc="F F F"
Eu       0.00000000       0.00000000       0.00000000       0.00000000       0.00000000      -1.36113167
Eu       0.00000000       0.00000000       2.60303030       0.00000000       0.00000000       1.36113167
2
Properties=species:S:1:pos:R:3:forces:R:3 energy=-17.334506970931127 pbc="F F F"
Eu       0.00000000       0.00000000       0.00000000       0.00000000       0.00000000      -1.24623823
Eu       0.00000000       0.00000000       2.66262626       0.00000000       0.00000000       1.24623823
2
Properties=species:S:1:pos:R:3:forces:R:3 energy=-17.40738679828656 pbc="F F F"
Eu       0.00000000       0.00000000       0.00000000       0.00000000       0.00000000      -1.20444477
Eu       0.00000000       0.00000000       2.72222222       0.00000000       0.00000000       1.20444477
2
Properties=species:S:1:pos:R:3:forces:R:3 energy=-17.478180917548233 pbc="F F F"
Eu       0.00000000       0.00000000       0.00000000       0.00000000       0.00000000      -1.17059624
Eu       0.00000000       0.00000000       2.78181818       0.00000000       0.00000000       1.17059624
2
Properties=species:S:1:pos:R:3:forces:R:3 energy=-17.54684781812659 pbc="F F F"
Eu       0.00000000       0.00000000       0.00000000       0.00000000       0.00000000      -1.13427711
Eu       0.00000000       0.00000000       2.84141414       0.00000000       0.00000000       1.13427711
2
Properties=species:S:1:pos:R:3:forces:R:3 energy=-17.613580471977578 pbc="F F F"
Eu       0.00000000       0.00000000       0.00000000       0.00000000       0.00000000      -1.10792375
Eu       0.00000000       0.00000000       2.90101010       0.00000000       0.00000000       1.10792375
2
Properties=species:S:1:pos:R:3:forces:R:3 energy=-17.67923601258379 pbc="F F F"
Eu       0.00000000       0.00000000       0.00000000       0.00000000       0.00000000      -1.09759593
Eu       0.00000000       0.00000000       2.96060606       0.00000000       0.00000000       1.09759593
2
Properties=species:S:1:pos:R:3:forces:R:3 energy=-17.744505248872088 pbc="F F F"
Eu       0.00000000       0.00000000       0.00000000       0.00000000       0.00000000      -1.09228361
Eu       0.00000000       0.00000000       3.02020202       0.00000000       0.00000000       1.09228361
2
Properties=species:S:1:pos:R:3:forces:R:3 energy=-17.809315249147733 pbc="F F F"
Eu       0.00000000       0.00000000       0.00000000       0.00000000       0.00000000      -1.08185244
Eu       0.00000000       0.00000000       3.07979798       0.00000000       0.00000000       1.08185244
2
Properties=species:S:1:pos:R:3:forces:R:3 energy=-17.87341115084068 pbc="F F F"
Eu       0.00000000       0.00000000       0.00000000       0.00000000       0.00000000      -1.06924140
Eu       0.00000000       0.00000000       3.13939394       0.00000000       0.00000000       1.06924140
2
Properties=species:S:1:pos:R:3:forces:R:3 energy=-17.93676863056885 pbc="F F F"
Eu       0.00000000       0.00000000       0.00000000       0.00000000       0.00000000      -1.05670226
Eu       0.00000000       0.00000000       3.19898990       0.00000000       0.00000000       1.05670226
2
Properties=species:S:1:pos:R:3:forces:R:3 energy=-17.999286649916673 pbc="F F F"
Eu       0.00000000       0.00000000       0.00000000       0.00000000       0.00000000      -1.04035711
Eu       0.00000000       0.00000000       3.25858586       0.00000000       0.00000000       1.04035711
2
Properties=species:S:1:pos:R:3:forces:R:3 energy=-18.060629090017933 pbc="F F F"
Eu       0.00000000       0.00000000       0.00000000       0.00000000       0.00000000      -1.01710033
Eu       0.00000000       0.00000000       3.31818182       0.00000000       0.00000000       1.01710033
2
Properties=species:S:1:pos:R:3:forces:R:3 energy=-18.120424487741904 pbc="F F F"
Eu       0.00000000       0.00000000       0.00000000       0.00000000       0.00000000      -0.98927754
Eu       0.00000000       0.00000000       3.37777778       0.00000000       0.00000000       0.98927754
2
Properties=species:S:1:pos:R:3:forces:R:3 energy=-18.178578436288642 pbc="F F F"
Eu       0.00000000       0.00000000       0.00000000       0.00000000       0.00000000      -0.96315891
Eu       0.00000000       0.00000000       3.43737374       0.00000000       0.00000000       0.96315891
2
Properties=species:S:1:pos:R:3:forces:R:3 energy=-18.235332982000152 pbc="F F F"
Eu       0.00000000       0.00000000       0.00000000       0.00000000       0.00000000      -0.94226074
Eu       0.00000000       0.00000000       3.49696970       0.00000000       0.00000000       0.94226074
2
Properties=species:S:1:pos:R:3:forces:R:3 energy=-18.290885647304314 pbc="F F F"
Eu       0.00000000       0.00000000       0.00000000       0.00000000       0.00000000      -0.92074066
Eu       0.00000000       0.00000000       3.55656566       0.00000000       0.00000000       0.92074066
2
Properties=species:S:1:pos:R:3:forces:R:3 energy=-18.344693744246367 pbc="F F F"
Eu       0.00000000       0.00000000       0.00000000       0.00000000       0.00000000      -0.87962061
Eu       0.00000000       0.00000000       3.61616162       0.00000000       0.00000000       0.87962061
2
Properties=species:S:1:pos:R:3:forces:R:3 energy=-18.394857150093177 pbc="F F F"
Eu       0.00000000       0.00000000       0.00000000       0.00000000       0.00000000      -0.79552329
Eu       0.00000000       0.00000000       3.67575758       0.00000000       0.00000000       0.79552329
2
Properties=species:S:1:pos:R:3:forces:R:3 energy=-18.438620727181238 pbc="F F F"
Eu       0.00000000       0.00000000       0.00000000       0.00000000       0.00000000      -0.66769838
Eu       0.00000000       0.00000000       3.73535354       0.00000000       0.00000000       0.66769838
2
Properties=species:S:1:pos:R:3:forces:R:3 energy=-18.47418092235503 pbc="F F F"
Eu       0.00000000       0.00000000       0.00000000       0.00000000       0.00000000      -0.52663273
Eu       0.00000000       0.00000000       3.79494949       0.00000000       0.00000000       0.52663273
2
Properties=species:S:1:pos:R:3:forces:R:3 energy=-18.501753097766603 pbc="F F F"
Eu       0.00000000       0.00000000       0.00000000       0.00000000       0.00000000      -0.40295216
Eu       0.00000000       0.00000000       3.85454545       0.00000000       0.00000000       0.40295216
2
Properties=species:S:1:pos:R:3:forces:R:3 energy=-18.52273633003215 pbc="F F F"
Eu       0.00000000       0.00000000       0.00000000       0.00000000       0.00000000      -0.30527973
Eu       0.00000000       0.00000000       3.91414141       0.00000000       0.00000000       0.30527973
2
Properties=species:S:1:pos:R:3:forces:R:3 energy=-18.538546716505444 pbc="F F F"
Eu       0.00000000       0.00000000       0.00000000       0.00000000       0.00000000      -0.22805247
Eu       0.00000000       0.00000000       3.97373737       0.00000000       0.00000000       0.22805247
2
Properties=species:S:1:pos:R:3:forces:R:3 energy=-18.550174980661012 pbc="F F F"
Eu       0.00000000       0.00000000       0.00000000       0.00000000       0.00000000      -0.16393642
Eu       0.00000000       0.00000000       4.03333333       0.00000000       0.00000000       0.16393642
2
Properties=species:S:1:pos:R:3:forces:R:3 energy=-18.558251101681936 pbc="F F F"
Eu       0.00000000       0.00000000       0.00000000       0.00000000       0.00000000      -0.10826746
Eu       0.00000000       0.00000000       4.09292929       0.00000000       0.00000000       0.10826746
2
Properties=species:S:1:pos:R:3:forces:R:3 energy=-18.56320463761903 pbc="F F F"
Eu       0.00000000       0.00000000       0.00000000       0.00000000       0.00000000      -0.05883577
Eu       0.00000000       0.00000000       4.15252525       0.00000000       0.00000000       0.05883577
2
Properties=species:S:1:pos:R:3:forces:R:3 energy=-18.565370910149852 pbc="F F F"
Eu       0.00000000       0.00000000       0.00000000       0.00000000       0.00000000      -0.01482944
Eu       0.00000000       0.00000000       4.21212121       0.00000000       0.00000000       0.01482944
2
Properties=species:S:1:pos:R:3:forces:R:3 energy=-18.56507478559872 pbc="F F F"
Eu       0.00000000       0.00000000       0.00000000       0.00000000       0.00000000       0.02392882
Eu       0.00000000       0.00000000       4.27171717       0.00000000       0.00000000      -0.02392882
2
Properties=species:S:1:pos:R:3:forces:R:3 energy=-18.56262364992765 pbc="F F F"
Eu       0.00000000       0.00000000       0.00000000       0.00000000       0.00000000       0.05742306
Eu       0.00000000       0.00000000       4.33131313       0.00000000       0.00000000      -0.05742306
2
Properties=species:S:1:pos:R:3:forces:R:3 energy=-18.558334686562333 pbc="F F F"
Eu       0.00000000       0.00000000       0.00000000       0.00000000       0.00000000       0.08570724
Eu       0.00000000       0.00000000       4.39090909       0.00000000       0.00000000      -0.08570724
2
Properties=species:S:1:pos:R:3:forces:R:3 energy=-18.552507323895533 pbc="F F F"
Eu       0.00000000       0.00000000       0.00000000       0.00000000       0.00000000       0.10904320
Eu       0.00000000       0.00000000       4.45050505       0.00000000       0.00000000      -0.10904320
2
Properties=species:S:1:pos:R:3:forces:R:3 energy=-18.545423342673374 pbc="F F F"
Eu       0.00000000       0.00000000       0.00000000       0.00000000       0.00000000       0.12791213
Eu       0.00000000       0.00000000       4.51010101       0.00000000       0.00000000      -0.12791213
2
Properties=species:S:1:pos:R:3:forces:R:3 energy=-18.537337947473986 pbc="F F F"
Eu       0.00000000       0.00000000       0.00000000       0.00000000       0.00000000       0.14294827
Eu       0.00000000       0.00000000       4.56969697       0.00000000       0.00000000      -0.14294827
2
Properties=species:S:1:pos:R:3:forces:R:3 energy=-18.528449325157148 pbc="F F F"
Eu       0.00000000       0.00000000       0.00000000       0.00000000       0.00000000       0.15482856
Eu       0.00000000       0.00000000       4.62929293       0.00000000       0.00000000      -0.15482856
2
Properties=species:S:1:pos:R:3:forces:R:3 energy=-18.51893310385254 pbc="F F F"
Eu       0.00000000       0.00000000       0.00000000       0.00000000       0.00000000       0.16418357
Eu       0.00000000       0.00000000       4.68888889       0.00000000       0.00000000      -0.16418357
2
Properties=species:S:1:pos:R:3:forces:R:3 energy=-18.50891987025739 pbc="F F F"
Eu       0.00000000       0.00000000       0.00000000       0.00000000       0.00000000       0.17153494
Eu       0.00000000       0.00000000       4.74848485       0.00000000       0.00000000      -0.17153494
2
Properties=species:S:1:pos:R:3:forces:R:3 energy=-18.49851774103787 pbc="F F F"
Eu       0.00000000       0.00000000       0.00000000       0.00000000       0.00000000       0.17728367
Eu       0.00000000       0.00000000       4.80808081       0.00000000       0.00000000      -0.17728367
2
Properties=species:S:1:pos:R:3:forces:R:3 energy=-18.4878165449937 pbc="F F F"
Eu       0.00000000       0.00000000       0.00000000       0.00000000       0.00000000       0.18169266
Eu       0.00000000       0.00000000       4.86767677       0.00000000       0.00000000      -0.18169266
2
Properties=species:S:1:pos:R:3:forces:R:3 energy=-18.476887645660128 pbc="F F F"
Eu       0.00000000       0.00000000       0.00000000       0.00000000       0.00000000       0.18489145
Eu       0.00000000       0.00000000       4.92727273       0.00000000       0.00000000      -0.18489145
2
Properties=species:S:1:pos:R:3:forces:R:3 energy=-18.465802970444756 pbc="F F F"
Eu       0.00000000       0.00000000       0.00000000       0.00000000       0.00000000       0.18685508
Eu       0.00000000       0.00000000       4.98686869       0.00000000       0.00000000      -0.18685508
2
Properties=species:S:1:pos:R:3:forces:R:3 energy=-18.454646752494597 pbc="F F F"
Eu       0.00000000       0.00000000       0.00000000       0.00000000       0.00000000       0.18739998
Eu       0.00000000       0.00000000       5.04646465       0.00000000       0.00000000      -0.18739998
2
Properties=species:S:1:pos:R:3:forces:R:3 energy=-18.44349981574063 pbc="F F F"
Eu       0.00000000       0.00000000       0.00000000       0.00000000       0.00000000       0.18620715
Eu       0.00000000       0.00000000       5.10606061       0.00000000       0.00000000      -0.18620715
2
Properties=species:S:1:pos:R:3:forces:R:3 energy=-18.432489520758345 pbc="F F F"
Eu       0.00000000       0.00000000       0.00000000       0.00000000       0.00000000       0.18287377
Eu       0.00000000       0.00000000       5.16565657       0.00000000       0.00000000      -0.18287377
2
Properties=species:S:1:pos:R:3:forces:R:3 energy=-18.42175522341608 pbc="F F F"
Eu       0.00000000       0.00000000       0.00000000       0.00000000       0.00000000       0.17702033
Eu       0.00000000       0.00000000       5.22525253       0.00000000       0.00000000      -0.17702033
2
Properties=species:S:1:pos:R:3:forces:R:3 energy=-18.411448179840363 pbc="F F F"
Eu       0.00000000       0.00000000       0.00000000       0.00000000       0.00000000       0.16839337
Eu       0.00000000       0.00000000       5.28484848       0.00000000       0.00000000      -0.16839337
2
Properties=species:S:1:pos:R:3:forces:R:3 energy=-18.40173726212615 pbc="F F F"
Eu       0.00000000       0.00000000       0.00000000       0.00000000       0.00000000       0.15698244
Eu       0.00000000       0.00000000       5.34444444       0.00000000       0.00000000      -0.15698244
2
Properties=species:S:1:pos:R:3:forces:R:3 energy=-18.392784099448182 pbc="F F F"
Eu       0.00000000       0.00000000       0.00000000       0.00000000       0.00000000       0.14307223
Eu       0.00000000       0.00000000       5.40404040       0.00000000       0.00000000      -0.14307223
2
Properties=species:S:1:pos:R:3:forces:R:3 energy=-18.384721926163607 pbc="F F F"
Eu       0.00000000       0.00000000       0.00000000       0.00000000       0.00000000       0.12728374
Eu       0.00000000       0.00000000       5.46363636       0.00000000       0.00000000      -0.12728374
2
Properties=species:S:1:pos:R:3:forces:R:3 energy=-18.37763648298308 pbc="F F F"
Eu       0.00000000       0.00000000       0.00000000       0.00000000       0.00000000       0.11050087
Eu       0.00000000       0.00000000       5.52323232       0.00000000       0.00000000      -0.11050087
2
Properties=species:S:1:pos:R:3:forces:R:3 energy=-18.37155067581833 pbc="F F F"
Eu       0.00000000       0.00000000       0.00000000       0.00000000       0.00000000       0.09377414
Eu       0.00000000       0.00000000       5.58282828       0.00000000       0.00000000      -0.09377414
2
Properties=species:S:1:pos:R:3:forces:R:3 energy=-18.366433941462923 pbc="F F F"
Eu       0.00000000       0.00000000       0.00000000       0.00000000       0.00000000       0.07820917
Eu       0.00000000       0.00000000       5.64242424       0.00000000       0.00000000      -0.07820917
2
Properties=species:S:1:pos:R:3:forces:R:3 energy=-18.362185018098124 pbc="F F F"
Eu       0.00000000       0.00000000       0.00000000       0.00000000       0.00000000       0.06476285
Eu       0.00000000       0.00000000       5.70202020       0.00000000       0.00000000      -0.06476285
2
Properties=species:S:1:pos:R:3:forces:R:3 energy=-18.358658584817316 pbc="F F F"
Eu       0.00000000       0.00000000       0.00000000       0.00000000       0.00000000       0.05414507
Eu       0.00000000       0.00000000       5.76161616       0.00000000       0.00000000      -0.05414507
2
Properties=species:S:1:pos:R:3:forces:R:3 energy=-18.35567091397981 pbc="F F F"
Eu       0.00000000       0.00000000       0.00000000       0.00000000       0.00000000       0.04664714
Eu       0.00000000       0.00000000       5.82121212       0.00000000       0.00000000      -0.04664714
2
Properties=species:S:1:pos:R:3:forces:R:3 energy=-18.353039773476674 pbc="F F F"
Eu       0.00000000       0.00000000       0.00000000       0.00000000       0.00000000       0.04212167
Eu       0.00000000       0.00000000       5.88080808       0.00000000       0.00000000      -0.04212167
2
Properties=species:S:1:pos:R:3:forces:R:3 energy=-18.350603493881398 pbc="F F F"
Eu       0.00000000       0.00000000       0.00000000       0.00000000       0.00000000       0.03991643
Eu       0.00000000       0.00000000       5.94040404       0.00000000       0.00000000      -0.03991643
2
Properties=species:S:1:pos:R:3:forces:R:3 energy=-18.34825519935501 pbc="F F F"
Eu       0.00000000       0.00000000       0.00000000       0.00000000       0.00000000       0.03898740
Eu       0.00000000       0.00000000       6.00000000       0.00000000       0.00000000      -0.03898740
