2
Properties=species:S:1:pos:R:3:forces:R:3 energy=0.34564483015755154 pbc="F F F"
He       0.00000000       0.00000000       0.00000000       0.00000000       0.00000000      -0.22946146
He       0.00000000       0.00000000       0.10000000       0.00000000       0.00000000       0.22946146
2
Properties=species:S:1:pos:R:3:forces:R:3 energy=0.328518508364949 pbc="F F F"
He       0.00000000       0.00000000       0.00000000       0.00000000       0.00000000      -0.34154496
He       0.00000000       0.00000000       0.15959596       0.00000000       0.00000000       0.34154496
2
Properties=species:S:1:pos:R:3:forces:R:3 energy=0.30496895183076017 pbc="F F F"
He       0.00000000       0.00000000       0.00000000       0.00000000       0.00000000      -0.45233062
He       0.00000000       0.00000000       0.21919192       0.00000000       0.00000000       0.45233062
2
Properties=species:S:1:pos:R:3:forces:R:3 energy=0.2742172472550491 pbc="F F F"
He       0.00000000       0.00000000       0.00000000       0.00000000       0.00000000      -0.58067399
He       0.00000000       0.00000000       0.27878788       0.00000000       0.00000000       0.58067399
2
Properties=species:S:1:pos:R:3:forces:R:3 energy=0.2358695283330733 pbc="F F F"
He       0.00000000       0.00000000       0.00000000       0.00000000       0.00000000      -0.70258451
He       0.00000000       0.00000000       0.33838384       0.00000000       0.00000000       0.70258451
2
Properties=species:S:1:pos:R:3:forces:R:3 energy=0.19180572684797637 pbc="F F F"
He       0.00000000       0.00000000       0.00000000       0.00000000       0.00000000      -0.77473861
He       0.00000000       0.00000000       0.39797980       0.00000000       0.00000000       0.77473861
2
Properties=species:S:1:pos:R:3:forces:R:3 energy=0.14405049574935538 pbc="F F F"
He       0.00000000       0.00000000       0.00000000       0.00000000       0.00000000      -0.77554631
He       0.00000000       0.00000000       0.45757576       0.00000000       0.00000000       0.77554631
2
Properties=species:S:1:pos:R:3:forces:R:3 energy=0.1004227770905793 pbc="F F F"
He       0.00000000       0.00000000       0.00000000       0.00000000       0.00000000      -0.74472624
He       0.00000000       0.00000000       0.51717172       0.00000000       0.00000000       0.74472624
2
Properties=species:S:1:pos:R:3:forces:R:3 energy=0.05909223688457974 pbc="F F F"
He       0.00000000       0.00000000       0.00000000       0.00000000       0.00000000      -0.60419750
He       0.00000000       0.00000000       0.57676768       0.00000000       0.00000000       0.60419750
2
Properties=species:S:1:pos:R:3:forces:R:3 energy=0.028590216155842153 pbc="F F F"
He       0.00000000       0.00000000       0.00000000       0.00000000       0.00000000      -0.45133582
He       0.00000000       0.00000000       0.63636364       0.00000000       0.00000000       0.45133582
2
Properties=species:S:1:pos:R:3:forces:R:3 energy=0.008394828217062946 pbc="F F F"
He       0.00000000       0.00000000       0.00000000       0.00000000       0.00000000      -0.22906752
He       0.00000000       0.00000000       0.69595960       0.00000000       0.00000000       0.22906752
2
Properties=species:S:1:pos:R:3:forces:R:3 energy=-0.0013325020115787143 pbc="F F F"
He       0.00000000       0.00000000       0.00000000       0.00000000       0.00000000      -0.10101352
He       0.00000000       0.00000000       0.75555556       0.00000000       0.00000000       0.10101352
2
Properties=species:S:1:pos:R:3:forces:R:3 energy=-0.004417657274059405 pbc="F F F"
He       0.00000000       0.00000000       0.00000000       0.00000000       0.00000000       0.00370435
He       0.00000000       0.00000000       0.81515152       0.00000000       0.00000000      -0.00370435
2
Properties=species:S:1:pos:R:3:forces:R:3 energy=-0.002433459495140508 pbc="F F F"
He       0.00000000       0.00000000       0.00000000       0.00000000       0.00000000       0.06550162
He       0.00000000       0.00000000       0.87474747       0.00000000       0.00000000      -0.06550162
2
Properties=species:S:1:pos:R:3:forces:R:3 energy=0.001970339608225785 pbc="F F F"
He       0.00000000       0.00000000       0.00000000       0.00000000       0.00000000       0.06811363
He       0.00000000       0.00000000       0.93434343       0.00000000       0.00000000      -0.06811363
2
Properties=species:S:1:pos:R:3:forces:R:3 energy=0.006006189606960854 pbc="F F F"
He       0.00000000       0.00000000       0.00000000       0.00000000       0.00000000       0.07448350
He       0.00000000       0.00000000       0.99393939       0.00000000       0.00000000      -0.07448350
2
Properties=species:S:1:pos:R:3:forces:R:3 energy=0.010851925601169755 pbc="F F F"
He       0.00000000       0.00000000       0.00000000       0.00000000       0.00000000       0.08414199
He       0.00000000       0.00000000       1.05353535       0.00000000       0.00000000      -0.08414199
2
Properties=species:S:1:pos:R:3:forces:R:3 energy=0.015841463794602478 pbc="F F F"
He       0.00000000       0.00000000       0.00000000       0.00000000       0.00000000       0.07526027
He       0.00000000       0.00000000       1.11313131       0.00000000       0.00000000      -0.07526027
2
Properties=species:S:1:pos:R:3:forces:R:3 energy=0.01974439351371983 pbc="F F F"
He       0.00000000       0.00000000       0.00000000       0.00000000       0.00000000       0.05390098
He       0.00000000       0.00000000       1.17272727       0.00000000       0.00000000      -0.05390098
2
Properties=species:S:1:pos:R:3:forces:R:3 energy=0.022821147537426624 pbc="F F F"
He       0.00000000       0.00000000       0.00000000       0.00000000       0.00000000       0.04713047
He       0.00000000       0.00000000       1.23232323       0.00000000       0.00000000      -0.04713047
2
Properties=species:S:1:pos:R:3:forces:R:3 energy=0.025355774458264 pbc="F F F"
He       0.00000000       0.00000000       0.00000000       0.00000000       0.00000000       0.03316309
He       0.00000000       0.00000000       1.29191919       0.00000000       0.00000000      -0.03316309
2
Properties=species:S:1:pos:R:3:forces:R:3 energy=0.026802878491300655 pbc="F F F"
He       0.00000000       0.00000000       0.00000000       0.00000000       0.00000000       0.01508381
He       0.00000000       0.00000000       1.35151515       0.00000000       0.00000000      -0.01508381
2
Properties=species:S:1:pos:R:3:forces:R:3 energy=0.027175930959235685 pbc="F F F"
He       0.00000000       0.00000000       0.00000000       0.00000000       0.00000000      -0.00134381
He       0.00000000       0.00000000       1.41111111       0.00000000       0.00000000       0.00134381
2
Properties=species:S:1:pos:R:3:forces:R:3 energy=0.02678667987437945 pbc="F F F"
He       0.00000000       0.00000000       0.00000000       0.00000000       0.00000000      -0.01088259
He       0.00000000       0.00000000       1.47070707       0.00000000       0.00000000       0.01088259
2
Properties=species:S:1:pos:R:3:forces:R:3 energy=0.025856765974302677 pbc="F F F"
He       0.00000000       0.00000000       0.00000000       0.00000000       0.00000000      -0.02093168
He       0.00000000       0.00000000       1.53030303       0.00000000       0.00000000       0.02093168
2
Properties=species:S:1:pos:R:3:forces:R:3 energy=0.02437705546318321 pbc="F F F"
He       0.00000000       0.00000000       0.00000000       0.00000000       0.00000000      -0.02734672
He       0.00000000       0.00000000       1.58989899       0.00000000       0.00000000       0.02734672
2
Properties=species:S:1:pos:R:3:forces:R:3 energy=0.022692479202431077 pbc="F F F"
He       0.00000000       0.00000000       0.00000000       0.00000000       0.00000000      -0.02938417
He       0.00000000       0.00000000       1.64949495       0.00000000       0.00000000       0.02938417
2
Properties=species:S:1:pos:R:3:forces:R:3 energy=0.020862355761953444 pbc="F F F"
He       0.00000000       0.00000000       0.00000000       0.00000000       0.00000000      -0.03120473
He       0.00000000       0.00000000       1.70909091       0.00000000       0.00000000       0.03120473
2
Properties=species:S:1:pos:R:3:forces:R:3 energy=0.019132217135457808 pbc="F F F"
He       0.00000000       0.00000000       0.00000000       0.00000000       0.00000000      -0.02591523
He       0.00000000       0.00000000       1.76868687       0.00000000       0.00000000       0.02591523
2
Properties=species:S:1:pos:R:3:forces:R:3 energy=0.017911395711110955 pbc="F F F"
He       0.00000000       0.00000000       0.00000000       0.00000000       0.00000000      -0.01249051
He       0.00000000       0.00000000       1.82828283       0.00000000       0.00000000       0.01249051
2
Properties=species:S:1:pos:R:3:forces:R:3 energy=0.017565832685627603 pbc="F F F"
He       0.00000000       0.00000000       0.00000000       0.00000000       0.00000000      -0.00146806
He       0.00000000       0.00000000       1.88787879       0.00000000       0.00000000       0.00146806
2
Properties=species:S:1:pos:R:3:forces:R:3 energy=0.01762485469986629 pbc="F F F"
He       0.00000000       0.00000000       0.00000000       0.00000000       0.00000000       0.00314881
He       0.00000000       0.00000000       1.94747475       0.00000000       0.00000000      -0.00314881
2
Properties=species:S:1:pos:R:3:forces:R:3 energy=0.01785500369451964 pbc="F F F"
He       0.00000000       0.00000000       0.00000000       0.00000000       0.00000000       0.00389317
He       0.00000000       0.00000000       2.00707071       0.00000000       0.00000000      -0.00389317
2
Properties=species:S:1:pos:R:3:forces:R:3 energy=0.018090275556205355 pbc="F F F"
He       0.00000000       0.00000000       0.00000000       0.00000000       0.00000000       0.00425145
He       0.00000000       0.00000000       2.06666667       0.00000000       0.00000000      -0.00425145
2
Properties=species:S:1:pos:R:3:forces:R:3 energy=0.018356088671110327 pbc="F F F"
He       0.00000000       0.00000000       0.00000000       0.00000000       0.00000000       0.00469349
He       0.00000000       0.00000000       2.12626263       0.00000000       0.00000000      -0.00469349
2
Properties=species:S:1:pos:R:3:forces:R:3 energy=0.01868903007471788 pbc="F F F"
He       0.00000000       0.00000000       0.00000000       0.00000000       0.00000000       0.00671681
He       0.00000000       0.00000000       2.18585859       0.00000000       0.00000000      -0.00671681
2
Properties=species:S:1:pos:R:3:forces:R:3 energy=0.01911133674428851 pbc="F F F"
He       0.00000000       0.00000000       0.00000000       0.00000000       0.00000000       0.00687455
He       0.00000000       0.00000000       2.24545455       0.00000000       0.00000000      -0.00687455
2
Properties=species:S:1:pos:R:3:forces:R:3 energy=0.01949045626537488 pbc="F F F"
He       0.00000000       0.00000000       0.00000000       0.00000000       0.00000000       0.00601120
He       0.00000000       0.00000000       2.30505051       0.00000000       0.00000000      -0.00601120
2
Properties=species:S:1:pos:R:3:forces:R:3 energy=0.019849461684156668 pbc="F F F"
He       0.00000000       0.00000000       0.00000000       0.00000000       0.00000000       0.00620736
He       0.00000000       0.00000000       2.36464646       0.00000000       0.00000000      -0.00620736
2
Properties=species:S:1:pos:R:3:forces:R:3 energy=0.020247597463666337 pbc="F F F"
He       0.00000000       0.00000000       0.00000000       0.00000000       0.00000000       0.00718893
He       0.00000000       0.00000000       2.42424242       0.00000000       0.00000000      -0.00718893
2
Properties=species:S:1:pos:R:3:forces:R:3 energy=0.020697545662985446 pbc="F F F"
He       0.00000000       0.00000000       0.00000000       0.00000000       0.00000000       0.00776993
He       0.00000000       0.00000000       2.48383838       0.00000000       0.00000000      -0.00776993
2
Properties=species:S:1:pos:R:3:forces:R:3 energy=0.021151121317470746 pbc="F F F"
He       0.00000000       0.00000000       0.00000000       0.00000000       0.00000000       0.00725626
He       0.00000000       0.00000000       2.54343434       0.00000000       0.00000000      -0.00725626
2
Properties=species:S:1:pos:R:3:forces:R:3 energy=0.021544098200452975 pbc="F F F"
He       0.00000000       0.00000000       0.00000000       0.00000000       0.00000000       0.00581598
He       0.00000000       0.00000000       2.60303030       0.00000000       0.00000000      -0.00581598
2
Properties=species:S:1:pos:R:3:forces:R:3 energy=0.02183460460888864 pbc="F F F"
He       0.00000000       0.00000000       0.00000000       0.00000000       0.00000000       0.00386935
He       0.00000000       0.00000000       2.66262626       0.00000000       0.00000000      -0.00386935
2
Properties=species:S:1:pos:R:3:forces:R:3 energy=0.022000273130805 pbc="F F F"
He       0.00000000       0.00000000       0.00000000       0.00000000       0.00000000       0.00166095
He       0.00000000       0.00000000       2.72222222       0.00000000       0.00000000      -0.00166095
2
Properties=species:S:1:pos:R:3:forces:R:3 energy=0.022032771372174808 pbc="F F F"
He       0.00000000       0.00000000       0.00000000       0.00000000       0.00000000      -0.00053296
He       0.00000000       0.00000000       2.78181818       0.00000000       0.00000000       0.00053296
2
Properties=species:S:1:pos:R:3:forces:R:3 energy=0.021943782022293423 pbc="F F F"
He       0.00000000       0.00000000       0.00000000       0.00000000       0.00000000      -0.00237046
He       0.00000000       0.00000000       2.84141414       0.00000000       0.00000000       0.00237046
2
Properties=species:S:1:pos:R:3:forces:R:3 energy=0.021760011209767307 pbc="F F F"
He       0.00000000       0.00000000       0.00000000       0.00000000       0.00000000      -0.00371354
He       0.00000000       0.00000000       2.90101010       0.00000000       0.00000000       0.00371354
2
Properties=species:S:1:pos:R:3:forces:R:3 energy=0.021509856860972756 pbc="F F F"
He       0.00000000       0.00000000       0.00000000       0.00000000       0.00000000      -0.00461576
He       0.00000000       0.00000000       2.96060606       0.00000000       0.00000000       0.00461576
2
Properties=species:S:1:pos:R:3:forces:R:3 energy=0.021216268269502028 pbc="F F F"
He       0.00000000       0.00000000       0.00000000       0.00000000       0.00000000      -0.00518765
He       0.00000000       0.00000000       3.02020202       0.00000000       0.00000000       0.00518765
2
Properties=species:S:1:pos:R:3:forces:R:3 energy=0.020897475211122535 pbc="F F F"
He       0.00000000       0.00000000       0.00000000       0.00000000       0.00000000      -0.00545413
He       0.00000000       0.00000000       3.07979798       0.00000000       0.00000000       0.00545413
2
Properties=species:S:1:pos:R:3:forces:R:3 energy=0.020573431630554105 pbc="F F F"
He       0.00000000       0.00000000       0.00000000       0.00000000       0.00000000      -0.00534422
He       0.00000000       0.00000000       3.13939394       0.00000000       0.00000000       0.00534422
2
Properties=species:S:1:pos:R:3:forces:R:3 energy=0.020268681861626413 pbc="F F F"
He       0.00000000       0.00000000       0.00000000       0.00000000       0.00000000      -0.00483217
He       0.00000000       0.00000000       3.19898990       0.00000000       0.00000000       0.00483217
2
Properties=species:S:1:pos:R:3:forces:R:3 energy=0.020004254940058953 pbc="F F F"
He       0.00000000       0.00000000       0.00000000       0.00000000       0.00000000      -0.00399871
He       0.00000000       0.00000000       3.25858586       0.00000000       0.00000000       0.00399871
2
Properties=species:S:1:pos:R:3:forces:R:3 energy=0.01979575304756445 pbc="F F F"
He       0.00000000       0.00000000       0.00000000       0.00000000       0.00000000      -0.00298433
He       0.00000000       0.00000000       3.31818182       0.00000000       0.00000000       0.00298433
2
Properties=species:S:1:pos:R:3:forces:R:3 energy=0.01964977280779849 pbc="F F F"
He       0.00000000       0.00000000       0.00000000       0.00000000       0.00000000      -0.00191449
He       0.00000000       0.00000000       3.37777778       0.00000000       0.00000000       0.00191449
2
Properties=species:S:1:pos:R:3:forces:R:3 energy=0.01956699646185193 pbc="F F F"
He       0.00000000       0.00000000       0.00000000       0.00000000       0.00000000      -0.00085738
He       0.00000000       0.00000000       3.43737374       0.00000000       0.00000000       0.00085738
2
Properties=species:S:1:pos:R:3:forces:R:3 energy=0.01954647850244984 pbc="F F F"
He       0.00000000       0.00000000       0.00000000       0.00000000       0.00000000       0.00015148
He       0.00000000       0.00000000       3.49696970       0.00000000       0.00000000      -0.00015148
2
Properties=species:S:1:pos:R:3:forces:R:3 energy=0.019583729193081403 pbc="F F F"
He       0.00000000       0.00000000       0.00000000       0.00000000       0.00000000       0.00107799
He       0.00000000       0.00000000       3.55656566       0.00000000       0.00000000      -0.00107799
2
Properties=species:S:1:pos:R:3:forces:R:3 energy=0.01967261560573704 pbc="F F F"
He       0.00000000       0.00000000       0.00000000       0.00000000       0.00000000       0.00188977
He       0.00000000       0.00000000       3.61616162       0.00000000       0.00000000      -0.00188977
2
Properties=species:S:1:pos:R:3:forces:R:3 energy=0.019806071481448626 pbc="F F F"
He       0.00000000       0.00000000       0.00000000       0.00000000       0.00000000       0.00256537
He       0.00000000       0.00000000       3.67575758       0.00000000       0.00000000      -0.00256537
2
Properties=species:S:1:pos:R:3:forces:R:3 energy=0.019975613661509222 pbc="F F F"
He       0.00000000       0.00000000       0.00000000       0.00000000       0.00000000       0.00309357
He       0.00000000       0.00000000       3.73535354       0.00000000       0.00000000      -0.00309357
2
Properties=species:S:1:pos:R:3:forces:R:3 energy=0.020171814692618865 pbc="F F F"
He       0.00000000       0.00000000       0.00000000       0.00000000       0.00000000       0.00346734
He       0.00000000       0.00000000       3.79494949       0.00000000       0.00000000      -0.00346734
2
Properties=species:S:1:pos:R:3:forces:R:3 energy=0.02038572903210096 pbc="F F F"
He       0.00000000       0.00000000       0.00000000       0.00000000       0.00000000       0.00368067
He       0.00000000       0.00000000       3.85454545       0.00000000       0.00000000      -0.00368067
2
Properties=species:S:1:pos:R:3:forces:R:3 energy=0.020606744409851538 pbc="F F F"
He       0.00000000       0.00000000       0.00000000       0.00000000       0.00000000       0.00373117
He       0.00000000       0.00000000       3.91414141       0.00000000       0.00000000      -0.00373117
2
Properties=species:S:1:pos:R:3:forces:R:3 energy=0.02082758592090184 pbc="F F F"
He       0.00000000       0.00000000       0.00000000       0.00000000       0.00000000       0.00362522
He       0.00000000       0.00000000       3.97373737       0.00000000       0.00000000      -0.00362522
2
Properties=species:S:1:pos:R:3:forces:R:3 energy=0.02103644622004482 pbc="F F F"
He       0.00000000       0.00000000       0.00000000       0.00000000       0.00000000       0.00338165
He       0.00000000       0.00000000       4.03333333       0.00000000       0.00000000      -0.00338165
2
Properties=species:S:1:pos:R:3:forces:R:3 energy=0.021228190019493914 pbc="F F F"
He       0.00000000       0.00000000       0.00000000       0.00000000       0.00000000       0.00303099
He       0.00000000       0.00000000       4.09292929       0.00000000       0.00000000      -0.00303099
2
Properties=species:S:1:pos:R:3:forces:R:3 energy=0.02139648491459912 pbc="F F F"
He       0.00000000       0.00000000       0.00000000       0.00000000       0.00000000       0.00261068
He       0.00000000       0.00000000       4.15252525       0.00000000       0.00000000      -0.00261068
2
Properties=species:S:1:pos:R:3:forces:R:3 energy=0.021538807802778955 pbc="F F F"
He       0.00000000       0.00000000       0.00000000       0.00000000       0.00000000       0.00215841
He       0.00000000       0.00000000       4.21212121       0.00000000       0.00000000      -0.00215841
2
Properties=species:S:1:pos:R:3:forces:R:3 energy=0.021653821969792725 pbc="F F F"
He       0.00000000       0.00000000       0.00000000       0.00000000       0.00000000       0.00170648
He       0.00000000       0.00000000       4.27171717       0.00000000       0.00000000      -0.00170648
2
Properties=species:S:1:pos:R:3:forces:R:3 energy=0.021742330306207622 pbc="F F F"
He       0.00000000       0.00000000       0.00000000       0.00000000       0.00000000       0.00127873
He       0.00000000       0.00000000       4.33131313       0.00000000       0.00000000      -0.00127873
2
Properties=species:S:1:pos:R:3:forces:R:3 energy=0.021806798569234974 pbc="F F F"
He       0.00000000       0.00000000       0.00000000       0.00000000       0.00000000       0.00088995
He       0.00000000       0.00000000       4.39090909       0.00000000       0.00000000      -0.00088995
2
Properties=species:S:1:pos:R:3:forces:R:3 energy=0.021849686687788323 pbc="F F F"
He       0.00000000       0.00000000       0.00000000       0.00000000       0.00000000       0.00054689
He       0.00000000       0.00000000       4.45050505       0.00000000       0.00000000      -0.00054689
2
Properties=species:S:1:pos:R:3:forces:R:3 energy=0.021872971826330793 pbc="F F F"
He       0.00000000       0.00000000       0.00000000       0.00000000       0.00000000       0.00025027
He       0.00000000       0.00000000       4.51010101       0.00000000       0.00000000      -0.00025027
2
Properties=species:S:1:pos:R:3:forces:R:3 energy=0.021880295005914055 pbc="F F F"
He       0.00000000       0.00000000       0.00000000       0.00000000       0.00000000      -0.00000281
He       0.00000000       0.00000000       4.56969697       0.00000000       0.00000000       0.00000281
2
Properties=species:S:1:pos:R:3:forces:R:3 energy=0.02187362272435009 pbc="F F F"
He       0.00000000       0.00000000       0.00000000       0.00000000       0.00000000      -0.00021659
He       0.00000000       0.00000000       4.62929293       0.00000000       0.00000000       0.00021659
2
Properties=species:S:1:pos:R:3:forces:R:3 energy=0.021854916839086403 pbc="F F F"
He       0.00000000       0.00000000       0.00000000       0.00000000       0.00000000      -0.00039476
He       0.00000000       0.00000000       4.68888889       0.00000000       0.00000000       0.00039476
2
Properties=species:S:1:pos:R:3:forces:R:3 energy=0.021827088161089452 pbc="F F F"
He       0.00000000       0.00000000       0.00000000       0.00000000       0.00000000      -0.00053946
He       0.00000000       0.00000000       4.74848485       0.00000000       0.00000000       0.00053946
2
Properties=species:S:1:pos:R:3:forces:R:3 energy=0.02179161306719631 pbc="F F F"
He       0.00000000       0.00000000       0.00000000       0.00000000       0.00000000      -0.00065117
He       0.00000000       0.00000000       4.80808081       0.00000000       0.00000000       0.00065117
2
Properties=species:S:1:pos:R:3:forces:R:3 energy=0.021749963733167413 pbc="F F F"
He       0.00000000       0.00000000       0.00000000       0.00000000       0.00000000      -0.00072926
He       0.00000000       0.00000000       4.86767677       0.00000000       0.00000000       0.00072926
2
Properties=species:S:1:pos:R:3:forces:R:3 energy=0.02170503933812227 pbc="F F F"
He       0.00000000       0.00000000       0.00000000       0.00000000       0.00000000      -0.00077293
He       0.00000000       0.00000000       4.92727273       0.00000000       0.00000000       0.00077293
2
Properties=species:S:1:pos:R:3:forces:R:3 energy=0.021658543676719672 pbc="F F F"
He       0.00000000       0.00000000       0.00000000       0.00000000       0.00000000      -0.00078221
He       0.00000000       0.00000000       4.98686869       0.00000000       0.00000000       0.00078221
2
Properties=species:S:1:pos:R:3:forces:R:3 energy=0.0216126542624517 pbc="F F F"
He       0.00000000       0.00000000       0.00000000       0.00000000       0.00000000      -0.00075874
He       0.00000000       0.00000000       5.04646465       0.00000000       0.00000000       0.00075874
2
Properties=species:S:1:pos:R:3:forces:R:3 energy=0.021568830723533248 pbc="F F F"
He       0.00000000       0.00000000       0.00000000       0.00000000       0.00000000      -0.00070619
He       0.00000000       0.00000000       5.10606061       0.00000000       0.00000000       0.00070619
2
Properties=species:S:1:pos:R:3:forces:R:3 energy=0.021528768421534072 pbc="F F F"
He       0.00000000       0.00000000       0.00000000       0.00000000       0.00000000      -0.00063033
He       0.00000000       0.00000000       5.16565657       0.00000000       0.00000000       0.00063033
2
Properties=species:S:1:pos:R:3:forces:R:3 energy=0.021493922004011203 pbc="F F F"
He       0.00000000       0.00000000       0.00000000       0.00000000       0.00000000      -0.00053863
He       0.00000000       0.00000000       5.22525253       0.00000000       0.00000000       0.00053863
2
Properties=species:S:1:pos:R:3:forces:R:3 energy=0.021465028817930422 pbc="F F F"
He       0.00000000       0.00000000       0.00000000       0.00000000       0.00000000      -0.00043938
He       0.00000000       0.00000000       5.28484848       0.00000000       0.00000000       0.00043938
2
Properties=species:S:1:pos:R:3:forces:R:3 energy=0.021441632106537396 pbc="F F F"
He       0.00000000       0.00000000       0.00000000       0.00000000       0.00000000      -0.00034070
He       0.00000000       0.00000000       5.34444444       0.00000000       0.00000000       0.00034070
2
Properties=species:S:1:pos:R:3:forces:R:3 energy=0.02142398865188024 pbc="F F F"
He       0.00000000       0.00000000       0.00000000       0.00000000       0.00000000      -0.00024952
He       0.00000000       0.00000000       5.40404040       0.00000000       0.00000000       0.00024952
2
Properties=species:S:1:pos:R:3:forces:R:3 energy=0.021411876796376333 pbc="F F F"
He       0.00000000       0.00000000       0.00000000       0.00000000       0.00000000      -0.00017077
He       0.00000000       0.00000000       5.46363636       0.00000000       0.00000000       0.00017077
2
Properties=species:S:1:pos:R:3:forces:R:3 energy=0.021403404498408475 pbc="F F F"
He       0.00000000       0.00000000       0.00000000       0.00000000       0.00000000      -0.00010702
He       0.00000000       0.00000000       5.52323232       0.00000000       0.00000000       0.00010702
2
Properties=species:S:1:pos:R:3:forces:R:3 energy=0.021398108854286193 pbc="F F F"
He       0.00000000       0.00000000       0.00000000       0.00000000       0.00000000      -0.00005861
He       0.00000000       0.00000000       5.58282828       0.00000000       0.00000000       0.00005861
2
Properties=species:S:1:pos:R:3:forces:R:3 energy=0.021396241108555997 pbc="F F F"
He       0.00000000       0.00000000       0.00000000       0.00000000       0.00000000      -0.00002424
He       0.00000000       0.00000000       5.64242424       0.00000000       0.00000000       0.00002424
2
Properties=species:S:1:pos:R:3:forces:R:3 energy=0.02139542873511601 pbc="F F F"
He       0.00000000       0.00000000       0.00000000       0.00000000       0.00000000      -0.00000156
He       0.00000000       0.00000000       5.70202020       0.00000000       0.00000000       0.00000156
2
Properties=species:S:1:pos:R:3:forces:R:3 energy=0.021395682394430213 pbc="F F F"
He       0.00000000       0.00000000       0.00000000       0.00000000       0.00000000       0.00001206
He       0.00000000       0.00000000       5.76161616       0.00000000       0.00000000      -0.00001206
2
Properties=species:S:1:pos:R:3:forces:R:3 energy=0.021396773473009643 pbc="F F F"
He       0.00000000       0.00000000       0.00000000       0.00000000       0.00000000       0.00001915
He       0.00000000       0.00000000       5.82121212       0.00000000       0.00000000      -0.00001915
2
Properties=species:S:1:pos:R:3:forces:R:3 energy=0.021397995647818607 pbc="F F F"
He       0.00000000       0.00000000       0.00000000       0.00000000       0.00000000       0.00002183
He       0.00000000       0.00000000       5.88080808       0.00000000       0.00000000      -0.00002183
2
Properties=species:S:1:pos:R:3:forces:R:3 energy=0.021399118713723124 pbc="F F F"
He       0.00000000       0.00000000       0.00000000       0.00000000       0.00000000       0.00002183
He       0.00000000       0.00000000       5.94040404       0.00000000       0.00000000      -0.00002183
2
Properties=species:S:1:pos:R:3:forces:R:3 energy=0.021400388595865225 pbc="F F F"
He       0.00000000       0.00000000       0.00000000       0.00000000       0.00000000       0.00002058
He       0.00000000       0.00000000       6.00000000       0.00000000       0.00000000      -0.00002058
