2
Properties=species:S:1:pos:R:3:forces:R:3 energy=13497647.952009575 pbc="F F F"
Hf       0.00000000       0.00000000       0.00000000       0.00000000       0.00000000 -71730800.00000000
Hf       0.00000000       0.00000000       0.10000000       0.00000000       0.00000000 71730800.00000000
2
Properties=species:S:1:pos:R:3:forces:R:3 energy=8980230.952009575 pbc="F F F"
Hf       0.00000000       0.00000000       0.00000000       0.00000000       0.00000000 -75063480.00000000
Hf       0.00000000       0.00000000       0.15959596       0.00000000       0.00000000 75063480.00000000
2
Properties=species:S:1:pos:R:3:forces:R:3 energy=4941018.952009575 pbc="F F F"
Hf       0.00000000       0.00000000       0.00000000       0.00000000       0.00000000 -58703772.00000000
Hf       0.00000000       0.00000000       0.21919192       0.00000000       0.00000000 58703772.00000000
2
Properties=species:S:1:pos:R:3:forces:R:3 energy=2082003.0770095757 pbc="F F F"
Hf       0.00000000       0.00000000       0.00000000       0.00000000       0.00000000 -37131152.00000000
Hf       0.00000000       0.00000000       0.27878788       0.00000000       0.00000000 37131152.00000000
2
Properties=species:S:1:pos:R:3:forces:R:3 energy=468916.0770095789 pbc="F F F"
Hf       0.00000000       0.00000000       0.00000000       0.00000000       0.00000000 -17661888.00000000
Hf       0.00000000       0.00000000       0.33838384       0.00000000       0.00000000 17661888.00000000
2
Properties=species:S:1:pos:R:3:forces:R:3 energy=96792.78013457889 pbc="F F F"
Hf       0.00000000       0.00000000       0.00000000       0.00000000       0.00000000 -2846129.00000000
Hf       0.00000000       0.00000000       0.39797980       0.00000000       0.00000000 2846129.00000000
2
Properties=species:S:1:pos:R:3:forces:R:3 energy=-1821.3912521398645 pbc="F F F"
Hf       0.00000000       0.00000000       0.00000000       0.00000000       0.00000000 -367400.68750000
Hf       0.00000000       0.00000000       0.45757576       0.00000000       0.00000000  367400.68750000
2
Properties=species:S:1:pos:R:3:forces:R:3 energy=-1965.933000177236 pbc="F F F"
Hf       0.00000000       0.00000000       0.00000000       0.00000000       0.00000000   35178.41796875
Hf       0.00000000       0.00000000       0.51717172       0.00000000       0.00000000  -35178.41796875
2
Properties=species:S:1:pos:R:3:forces:R:3 energy=-671.8159957732013 pbc="F F F"
Hf       0.00000000       0.00000000       0.00000000       0.00000000       0.00000000   13531.61230469
Hf       0.00000000       0.00000000       0.57676768       0.00000000       0.00000000  -13531.61230469
2
Properties=species:S:1:pos:R:3:forces:R:3 energy=-192.1716170889172 pbc="F F F"
Hf       0.00000000       0.00000000       0.00000000       0.00000000       0.00000000    4096.92333984
Hf       0.00000000       0.00000000       0.63636364       0.00000000       0.00000000   -4096.92333984
2
Properties=species:S:1:pos:R:3:forces:R:3 energy=-57.24287178429576 pbc="F F F"
Hf       0.00000000       0.00000000       0.00000000       0.00000000       0.00000000    1301.02893066
Hf       0.00000000       0.00000000       0.69595960       0.00000000       0.00000000   -1301.02893066
2
Properties=species:S:1:pos:R:3:forces:R:3 energy=0.4966111396924237 pbc="F F F"
Hf       0.00000000       0.00000000       0.00000000       0.00000000       0.00000000     587.61071777
Hf       0.00000000       0.00000000       0.75555556       0.00000000       0.00000000    -587.61071777
2
Properties=species:S:1:pos:R:3:forces:R:3 energy=15.328619577536562 pbc="F F F"
Hf       0.00000000       0.00000000       0.00000000       0.00000000       0.00000000    -102.25407410
Hf       0.00000000       0.00000000       0.81515152       0.00000000       0.00000000     102.25407410
2
Properties=species:S:1:pos:R:3:forces:R:3 energy=30.794626914740707 pbc="F F F"
Hf       0.00000000       0.00000000       0.00000000       0.00000000       0.00000000     343.64147949
Hf       0.00000000       0.00000000       0.87474747       0.00000000       0.00000000    -343.64147949
2
Properties=species:S:1:pos:R:3:forces:R:3 energy=52.86595045840374 pbc="F F F"
Hf       0.00000000       0.00000000       0.00000000       0.00000000       0.00000000     508.57574463
Hf       0.00000000       0.00000000       0.93434343       0.00000000       0.00000000    -508.57574463
2
Properties=species:S:1:pos:R:3:forces:R:3 energy=64.02286442480423 pbc="F F F"
Hf       0.00000000       0.00000000       0.00000000       0.00000000       0.00000000    -109.56523895
Hf       0.00000000       0.00000000       0.99393939       0.00000000       0.00000000     109.56523895
2
Properties=species:S:1:pos:R:3:forces:R:3 energy=65.03285158101397 pbc="F F F"
Hf       0.00000000       0.00000000       0.00000000       0.00000000       0.00000000      49.20679474
Hf       0.00000000       0.00000000       1.05353535       0.00000000       0.00000000     -49.20679474
2
Properties=species:S:1:pos:R:3:forces:R:3 energy=57.24770333421152 pbc="F F F"
Hf       0.00000000       0.00000000       0.00000000       0.00000000       0.00000000    -211.05635071
Hf       0.00000000       0.00000000       1.11313131       0.00000000       0.00000000     211.05635071
2
Properties=species:S:1:pos:R:3:forces:R:3 energy=46.33293943043054 pbc="F F F"
Hf       0.00000000       0.00000000       0.00000000       0.00000000       0.00000000    -214.45410156
Hf       0.00000000       0.00000000       1.17272727       0.00000000       0.00000000     214.45410156
2
Properties=species:S:1:pos:R:3:forces:R:3 energy=34.32207963038321 pbc="F F F"
Hf       0.00000000       0.00000000       0.00000000       0.00000000       0.00000000    -175.53674316
Hf       0.00000000       0.00000000       1.23232323       0.00000000       0.00000000     175.53674316
2
Properties=species:S:1:pos:R:3:forces:R:3 energy=25.8885630011301 pbc="F F F"
Hf       0.00000000       0.00000000       0.00000000       0.00000000       0.00000000    -117.72611237
Hf       0.00000000       0.00000000       1.29191919       0.00000000       0.00000000     117.72611237
2
Properties=species:S:1:pos:R:3:forces:R:3 energy=19.76589864123797 pbc="F F F"
Hf       0.00000000       0.00000000       0.00000000       0.00000000       0.00000000     -93.40785217
Hf       0.00000000       0.00000000       1.35151515       0.00000000       0.00000000      93.40785217
2
Properties=species:S:1:pos:R:3:forces:R:3 energy=14.388962099176691 pbc="F F F"
Hf       0.00000000       0.00000000       0.00000000       0.00000000       0.00000000     -88.02230072
Hf       0.00000000       0.00000000       1.41111111       0.00000000       0.00000000      88.02230072
2
Properties=species:S:1:pos:R:3:forces:R:3 energy=9.38567547740124 pbc="F F F"
Hf       0.00000000       0.00000000       0.00000000       0.00000000       0.00000000     -77.00608826
Hf       0.00000000       0.00000000       1.47070707       0.00000000       0.00000000      77.00608826
2
Properties=species:S:1:pos:R:3:forces:R:3 energy=5.39815729324755 pbc="F F F"
Hf       0.00000000       0.00000000       0.00000000       0.00000000       0.00000000     -57.95472717
Hf       0.00000000       0.00000000       1.53030303       0.00000000       0.00000000      57.95472717
2
Properties=species:S:1:pos:R:3:forces:R:3 energy=2.3606040885756805 pbc="F F F"
Hf       0.00000000       0.00000000       0.00000000       0.00000000       0.00000000     -45.10742950
Hf       0.00000000       0.00000000       1.58989899       0.00000000       0.00000000      45.10742950
2
Properties=species:S:1:pos:R:3:forces:R:3 energy=-0.06895639582174685 pbc="F F F"
Hf       0.00000000       0.00000000       0.00000000       0.00000000       0.00000000     -36.05757141
Hf       0.00000000       0.00000000       1.64949495       0.00000000       0.00000000      36.05757141
2
Properties=species:S:1:pos:R:3:forces:R:3 energy=-2.0354615833366783 pbc="F F F"
Hf       0.00000000       0.00000000       0.00000000       0.00000000       0.00000000     -30.73078728
Hf       0.00000000       0.00000000       1.70909091       0.00000000       0.00000000      30.73078728
2
Properties=species:S:1:pos:R:3:forces:R:3 energy=-3.7101207079259537 pbc="F F F"
Hf       0.00000000       0.00000000       0.00000000       0.00000000       0.00000000     -25.46489334
Hf       0.00000000       0.00000000       1.76868687       0.00000000       0.00000000      25.46489334
2
Properties=species:S:1:pos:R:3:forces:R:3 energy=-5.140443764628837 pbc="F F F"
Hf       0.00000000       0.00000000       0.00000000       0.00000000       0.00000000     -22.66107178
Hf       0.00000000       0.00000000       1.82828283       0.00000000       0.00000000      22.66107178
2
Properties=species:S:1:pos:R:3:forces:R:3 energy=-6.365006816187517 pbc="F F F"
Hf       0.00000000       0.00000000       0.00000000       0.00000000       0.00000000     -18.68311501
Hf       0.00000000       0.00000000       1.88787879       0.00000000       0.00000000      18.68311501
2
Properties=species:S:1:pos:R:3:forces:R:3 energy=-7.377103504431784 pbc="F F F"
Hf       0.00000000       0.00000000       0.00000000       0.00000000       0.00000000     -15.11225224
Hf       0.00000000       0.00000000       1.94747475       0.00000000       0.00000000      15.11225224
2
Properties=species:S:1:pos:R:3:forces:R:3 energy=-8.169556216694948 pbc="F F F"
Hf       0.00000000       0.00000000       0.00000000       0.00000000       0.00000000     -11.63622284
Hf       0.00000000       0.00000000       2.00707071       0.00000000       0.00000000      11.63622284
2
Properties=species:S:1:pos:R:3:forces:R:3 energy=-8.78152286159034 pbc="F F F"
Hf       0.00000000       0.00000000       0.00000000       0.00000000       0.00000000      -8.96539116
Hf       0.00000000       0.00000000       2.06666667       0.00000000       0.00000000       8.96539116
2
Properties=species:S:1:pos:R:3:forces:R:3 energy=-9.235569103394718 pbc="F F F"
Hf       0.00000000       0.00000000       0.00000000       0.00000000       0.00000000      -6.25431538
Hf       0.00000000       0.00000000       2.12626263       0.00000000       0.00000000       6.25431538
2
Properties=species:S:1:pos:R:3:forces:R:3 energy=-9.538866737694216 pbc="F F F"
Hf       0.00000000       0.00000000       0.00000000       0.00000000       0.00000000      -4.08198643
Hf       0.00000000       0.00000000       2.18585859       0.00000000       0.00000000       4.08198643
2
Properties=species:S:1:pos:R:3:forces:R:3 energy=-9.732767377455666 pbc="F F F"
Hf       0.00000000       0.00000000       0.00000000       0.00000000       0.00000000      -2.49860716
Hf       0.00000000       0.00000000       2.24545455       0.00000000       0.00000000       2.49860716
2
Properties=species:S:1:pos:R:3:forces:R:3 energy=-9.848884936465959 pbc="F F F"
Hf       0.00000000       0.00000000       0.00000000       0.00000000       0.00000000      -1.45417809
Hf       0.00000000       0.00000000       2.30505051       0.00000000       0.00000000       1.45417809
2
Properties=species:S:1:pos:R:3:forces:R:3 energy=-9.904340247898874 pbc="F F F"
Hf       0.00000000       0.00000000       0.00000000       0.00000000       0.00000000      -0.39013445
Hf       0.00000000       0.00000000       2.36464646       0.00000000       0.00000000       0.39013445
2
Properties=species:S:1:pos:R:3:forces:R:3 energy=-9.899064970001785 pbc="F F F"
Hf       0.00000000       0.00000000       0.00000000       0.00000000       0.00000000       0.51601934
Hf       0.00000000       0.00000000       2.42424242       0.00000000       0.00000000      -0.51601934
2
Properties=species:S:1:pos:R:3:forces:R:3 energy=-9.849336466052872 pbc="F F F"
Hf       0.00000000       0.00000000       0.00000000       0.00000000       0.00000000       1.09598100
Hf       0.00000000       0.00000000       2.48383838       0.00000000       0.00000000      -1.09598100
2
Properties=species:S:1:pos:R:3:forces:R:3 energy=-9.772706435980524 pbc="F F F"
Hf       0.00000000       0.00000000       0.00000000       0.00000000       0.00000000       1.46432376
Hf       0.00000000       0.00000000       2.54343434       0.00000000       0.00000000      -1.46432376
2
Properties=species:S:1:pos:R:3:forces:R:3 energy=-9.676152748432637 pbc="F F F"
Hf       0.00000000       0.00000000       0.00000000       0.00000000       0.00000000       1.75412524
Hf       0.00000000       0.00000000       2.60303030       0.00000000       0.00000000      -1.75412524
2
Properties=species:S:1:pos:R:3:forces:R:3 energy=-9.56659797398661 pbc="F F F"
Hf       0.00000000       0.00000000       0.00000000       0.00000000       0.00000000       1.90300930
Hf       0.00000000       0.00000000       2.66262626       0.00000000       0.00000000      -1.90300930
2
Properties=species:S:1:pos:R:3:forces:R:3 energy=-9.45063176423328 pbc="F F F"
Hf       0.00000000       0.00000000       0.00000000       0.00000000       0.00000000       1.98311412
Hf       0.00000000       0.00000000       2.72222222       0.00000000       0.00000000      -1.98311412
2
Properties=species:S:1:pos:R:3:forces:R:3 energy=-9.33084285198188 pbc="F F F"
Hf       0.00000000       0.00000000       0.00000000       0.00000000       0.00000000       2.03073955
Hf       0.00000000       0.00000000       2.78181818       0.00000000       0.00000000      -2.03073955
2
Properties=species:S:1:pos:R:3:forces:R:3 energy=-9.209450281285802 pbc="F F F"
Hf       0.00000000       0.00000000       0.00000000       0.00000000       0.00000000       2.03543878
Hf       0.00000000       0.00000000       2.84141414       0.00000000       0.00000000      -2.03543878
2
Properties=species:S:1:pos:R:3:forces:R:3 energy=-9.08911165362598 pbc="F F F"
Hf       0.00000000       0.00000000       0.00000000       0.00000000       0.00000000       1.99646521
Hf       0.00000000       0.00000000       2.90101010       0.00000000       0.00000000      -1.99646521
2
Properties=species:S:1:pos:R:3:forces:R:3 energy=-8.972063695490164 pbc="F F F"
Hf       0.00000000       0.00000000       0.00000000       0.00000000       0.00000000       1.92859030
Hf       0.00000000       0.00000000       2.96060606       0.00000000       0.00000000      -1.92859030
2
Properties=species:S:1:pos:R:3:forces:R:3 energy=-8.859421256905344 pbc="F F F"
Hf       0.00000000       0.00000000       0.00000000       0.00000000       0.00000000       1.85089195
Hf       0.00000000       0.00000000       3.02020202       0.00000000       0.00000000      -1.85089195
2
Properties=species:S:1:pos:R:3:forces:R:3 energy=-8.751644556750215 pbc="F F F"
Hf       0.00000000       0.00000000       0.00000000       0.00000000       0.00000000       1.76292658
Hf       0.00000000       0.00000000       3.07979798       0.00000000       0.00000000      -1.76292658
2
Properties=species:S:1:pos:R:3:forces:R:3 energy=-8.649826587078952 pbc="F F F"
Hf       0.00000000       0.00000000       0.00000000       0.00000000       0.00000000       1.64900041
Hf       0.00000000       0.00000000       3.13939394       0.00000000       0.00000000      -1.64900041
2
Properties=species:S:1:pos:R:3:forces:R:3 energy=-8.555564954080728 pbc="F F F"
Hf       0.00000000       0.00000000       0.00000000       0.00000000       0.00000000       1.51229560
Hf       0.00000000       0.00000000       3.19898990       0.00000000       0.00000000      -1.51229560
2
Properties=species:S:1:pos:R:3:forces:R:3 energy=-8.469546471305033 pbc="F F F"
Hf       0.00000000       0.00000000       0.00000000       0.00000000       0.00000000       1.37677228
Hf       0.00000000       0.00000000       3.25858586       0.00000000       0.00000000      -1.37677228
2
Properties=species:S:1:pos:R:3:forces:R:3 energy=-8.391011730028628 pbc="F F F"
Hf       0.00000000       0.00000000       0.00000000       0.00000000       0.00000000       1.26340020
Hf       0.00000000       0.00000000       3.31818182       0.00000000       0.00000000      -1.26340020
2
Properties=species:S:1:pos:R:3:forces:R:3 energy=-8.31842627454219 pbc="F F F"
Hf       0.00000000       0.00000000       0.00000000       0.00000000       0.00000000       1.17647147
Hf       0.00000000       0.00000000       3.37777778       0.00000000       0.00000000      -1.17647147
2
Properties=species:S:1:pos:R:3:forces:R:3 energy=-8.250399055775231 pbc="F F F"
Hf       0.00000000       0.00000000       0.00000000       0.00000000       0.00000000       1.10921407
Hf       0.00000000       0.00000000       3.43737374       0.00000000       0.00000000      -1.10921407
2
Properties=species:S:1:pos:R:3:forces:R:3 energy=-8.185912506529418 pbc="F F F"
Hf       0.00000000       0.00000000       0.00000000       0.00000000       0.00000000       1.05749583
Hf       0.00000000       0.00000000       3.49696970       0.00000000       0.00000000      -1.05749583
2
Properties=species:S:1:pos:R:3:forces:R:3 energy=-8.124021465587322 pbc="F F F"
Hf       0.00000000       0.00000000       0.00000000       0.00000000       0.00000000       1.02238882
Hf       0.00000000       0.00000000       3.55656566       0.00000000       0.00000000      -1.02238882
2
Properties=species:S:1:pos:R:3:forces:R:3 energy=-8.063714004852082 pbc="F F F"
Hf       0.00000000       0.00000000       0.00000000       0.00000000       0.00000000       1.00419438
Hf       0.00000000       0.00000000       3.61616162       0.00000000       0.00000000      -1.00419438
2
Properties=species:S:1:pos:R:3:forces:R:3 energy=-8.004057674938378 pbc="F F F"
Hf       0.00000000       0.00000000       0.00000000       0.00000000       0.00000000       0.99955022
Hf       0.00000000       0.00000000       3.67575758       0.00000000       0.00000000      -0.99955022
2
Properties=species:S:1:pos:R:3:forces:R:3 energy=-7.944416397353425 pbc="F F F"
Hf       0.00000000       0.00000000       0.00000000       0.00000000       0.00000000       1.00291777
Hf       0.00000000       0.00000000       3.73535354       0.00000000       0.00000000      -1.00291777
2
Properties=species:S:1:pos:R:3:forces:R:3 energy=-7.884474709728882 pbc="F F F"
Hf       0.00000000       0.00000000       0.00000000       0.00000000       0.00000000       1.00847101
Hf       0.00000000       0.00000000       3.79494949       0.00000000       0.00000000      -1.00847101
2
Properties=species:S:1:pos:R:3:forces:R:3 energy=-7.824275821536897 pbc="F F F"
Hf       0.00000000       0.00000000       0.00000000       0.00000000       0.00000000       1.01090062
Hf       0.00000000       0.00000000       3.85454545       0.00000000       0.00000000      -1.01090062
2
Properties=species:S:1:pos:R:3:forces:R:3 energy=-7.764132582302762 pbc="F F F"
Hf       0.00000000       0.00000000       0.00000000       0.00000000       0.00000000       1.00587595
Hf       0.00000000       0.00000000       3.91414141       0.00000000       0.00000000      -1.00587595
2
Properties=species:S:1:pos:R:3:forces:R:3 energy=-7.704587433299566 pbc="F F F"
Hf       0.00000000       0.00000000       0.00000000       0.00000000       0.00000000       0.99062341
Hf       0.00000000       0.00000000       3.97373737       0.00000000       0.00000000      -0.99062341
2
Properties=species:S:1:pos:R:3:forces:R:3 energy=-7.646279887840056 pbc="F F F"
Hf       0.00000000       0.00000000       0.00000000       0.00000000       0.00000000       0.96442115
Hf       0.00000000       0.00000000       4.03333333       0.00000000       0.00000000      -0.96442115
2
Properties=species:S:1:pos:R:3:forces:R:3 energy=-7.5898282693257535 pbc="F F F"
Hf       0.00000000       0.00000000       0.00000000       0.00000000       0.00000000       0.92851776
Hf       0.00000000       0.00000000       4.09292929       0.00000000       0.00000000      -0.92851776
2
Properties=species:S:1:pos:R:3:forces:R:3 energy=-7.535750166476724 pbc="F F F"
Hf       0.00000000       0.00000000       0.00000000       0.00000000       0.00000000       0.88539064
Hf       0.00000000       0.00000000       4.15252525       0.00000000       0.00000000      -0.88539064
2
Properties=species:S:1:pos:R:3:forces:R:3 energy=-7.484387679267525 pbc="F F F"
Hf       0.00000000       0.00000000       0.00000000       0.00000000       0.00000000       0.83768135
Hf       0.00000000       0.00000000       4.21212121       0.00000000       0.00000000      -0.83768135
2
Properties=species:S:1:pos:R:3:forces:R:3 energy=-7.43595344238452 pbc="F F F"
Hf       0.00000000       0.00000000       0.00000000       0.00000000       0.00000000       0.78743052
Hf       0.00000000       0.00000000       4.27171717       0.00000000       0.00000000      -0.78743052
2
Properties=species:S:1:pos:R:3:forces:R:3 energy=-7.390559203777153 pbc="F F F"
Hf       0.00000000       0.00000000       0.00000000       0.00000000       0.00000000       0.73584121
Hf       0.00000000       0.00000000       4.33131313       0.00000000       0.00000000      -0.73584121
2
Properties=species:S:1:pos:R:3:forces:R:3 energy=-7.348259820389386 pbc="F F F"
Hf       0.00000000       0.00000000       0.00000000       0.00000000       0.00000000       0.68349522
Hf       0.00000000       0.00000000       4.39090909       0.00000000       0.00000000      -0.68349522
2
Properties=species:S:1:pos:R:3:forces:R:3 energy=-7.309100872183434 pbc="F F F"
Hf       0.00000000       0.00000000       0.00000000       0.00000000       0.00000000       0.63072568
Hf       0.00000000       0.00000000       4.45050505       0.00000000       0.00000000      -0.63072568
2
Properties=species:S:1:pos:R:3:forces:R:3 energy=-7.273088245931946 pbc="F F F"
Hf       0.00000000       0.00000000       0.00000000       0.00000000       0.00000000       0.57788152
Hf       0.00000000       0.00000000       4.51010101       0.00000000       0.00000000      -0.57788152
2
Properties=species:S:1:pos:R:3:forces:R:3 energy=-7.2402148317632244 pbc="F F F"
Hf       0.00000000       0.00000000       0.00000000       0.00000000       0.00000000       0.52547061
Hf       0.00000000       0.00000000       4.56969697       0.00000000       0.00000000      -0.52547061
2
Properties=species:S:1:pos:R:3:forces:R:3 energy=-7.210435651601262 pbc="F F F"
Hf       0.00000000       0.00000000       0.00000000       0.00000000       0.00000000       0.47419167
Hf       0.00000000       0.00000000       4.62929293       0.00000000       0.00000000      -0.47419167
2
Properties=species:S:1:pos:R:3:forces:R:3 energy=-7.183654837178819 pbc="F F F"
Hf       0.00000000       0.00000000       0.00000000       0.00000000       0.00000000       0.42488474
Hf       0.00000000       0.00000000       4.68888889       0.00000000       0.00000000      -0.42488474
2
Properties=species:S:1:pos:R:3:forces:R:3 energy=-7.159730965609019 pbc="F F F"
Hf       0.00000000       0.00000000       0.00000000       0.00000000       0.00000000       0.37848282
Hf       0.00000000       0.00000000       4.74848485       0.00000000       0.00000000      -0.37848282
2
Properties=species:S:1:pos:R:3:forces:R:3 energy=-7.138463942363757 pbc="F F F"
Hf       0.00000000       0.00000000       0.00000000       0.00000000       0.00000000       0.33593658
Hf       0.00000000       0.00000000       4.80808081       0.00000000       0.00000000      -0.33593658
2
Properties=species:S:1:pos:R:3:forces:R:3 energy=-7.119598803299677 pbc="F F F"
Hf       0.00000000       0.00000000       0.00000000       0.00000000       0.00000000       0.29810098
Hf       0.00000000       0.00000000       4.86767677       0.00000000       0.00000000      -0.29810098
2
Properties=species:S:1:pos:R:3:forces:R:3 energy=-7.102827542811252 pbc="F F F"
Hf       0.00000000       0.00000000       0.00000000       0.00000000       0.00000000       0.26560917
Hf       0.00000000       0.00000000       4.92727273       0.00000000       0.00000000      -0.26560917
2
Properties=species:S:1:pos:R:3:forces:R:3 energy=-7.087825343951341 pbc="F F F"
Hf       0.00000000       0.00000000       0.00000000       0.00000000       0.00000000       0.23872423
Hf       0.00000000       0.00000000       4.98686869       0.00000000       0.00000000      -0.23872423
2
Properties=species:S:1:pos:R:3:forces:R:3 energy=-7.0742696360784025 pbc="F F F"
Hf       0.00000000       0.00000000       0.00000000       0.00000000       0.00000000       0.21722300
Hf       0.00000000       0.00000000       5.04646465       0.00000000       0.00000000      -0.21722300
2
Properties=species:S:1:pos:R:3:forces:R:3 energy=-7.061843871539901 pbc="F F F"
Hf       0.00000000       0.00000000       0.00000000       0.00000000       0.00000000       0.20034574
Hf       0.00000000       0.00000000       5.10606061       0.00000000       0.00000000      -0.20034574
2
Properties=species:S:1:pos:R:3:forces:R:3 energy=-7.050315644602871 pbc="F F F"
Hf       0.00000000       0.00000000       0.00000000       0.00000000       0.00000000       0.18687099
Hf       0.00000000       0.00000000       5.16565657       0.00000000       0.00000000      -0.18687099
2
Properties=species:S:1:pos:R:3:forces:R:3 energy=-7.039532867253187 pbc="F F F"
Hf       0.00000000       0.00000000       0.00000000       0.00000000       0.00000000       0.17528263
Hf       0.00000000       0.00000000       5.22525253       0.00000000       0.00000000      -0.17528263
2
Properties=species:S:1:pos:R:3:forces:R:3 energy=-7.029421735134046 pbc="F F F"
Hf       0.00000000       0.00000000       0.00000000       0.00000000       0.00000000       0.16402259
Hf       0.00000000       0.00000000       5.28484848       0.00000000       0.00000000      -0.16402259
2
Properties=species:S:1:pos:R:3:forces:R:3 energy=-7.020002033852359 pbc="F F F"
Hf       0.00000000       0.00000000       0.00000000       0.00000000       0.00000000       0.15177713
Hf       0.00000000       0.00000000       5.34444444       0.00000000       0.00000000      -0.15177713
2
Properties=species:S:1:pos:R:3:forces:R:3 energy=-7.011364079732765 pbc="F F F"
Hf       0.00000000       0.00000000       0.00000000       0.00000000       0.00000000       0.13770269
Hf       0.00000000       0.00000000       5.40404040       0.00000000       0.00000000      -0.13770269
2
Properties=species:S:1:pos:R:3:forces:R:3 energy=-7.003630572844971 pbc="F F F"
Hf       0.00000000       0.00000000       0.00000000       0.00000000       0.00000000       0.12156802
Hf       0.00000000       0.00000000       5.46363636       0.00000000       0.00000000      -0.12156802
2
Properties=species:S:1:pos:R:3:forces:R:3 energy=-6.99691263928618 pbc="F F F"
Hf       0.00000000       0.00000000       0.00000000       0.00000000       0.00000000       0.10377704
Hf       0.00000000       0.00000000       5.52323232       0.00000000       0.00000000      -0.10377704
2
Properties=species:S:1:pos:R:3:forces:R:3 energy=-6.991279316770788 pbc="F F F"
Hf       0.00000000       0.00000000       0.00000000       0.00000000       0.00000000       0.08525523
Hf       0.00000000       0.00000000       5.58282828       0.00000000       0.00000000      -0.08525523
2
Properties=species:S:1:pos:R:3:forces:R:3 energy=-6.986740230101579 pbc="F F F"
Hf       0.00000000       0.00000000       0.00000000       0.00000000       0.00000000       0.06727023
Hf       0.00000000       0.00000000       5.64242424       0.00000000       0.00000000      -0.06727023
2
Properties=species:S:1:pos:R:3:forces:R:3 energy=-6.983218961148778 pbc="F F F"
Hf       0.00000000       0.00000000       0.00000000       0.00000000       0.00000000       0.05114181
Hf       0.00000000       0.00000000       5.70202020       0.00000000       0.00000000      -0.05114181
2
Properties=species:S:1:pos:R:3:forces:R:3 energy=-6.98058539141343 pbc="F F F"
Hf       0.00000000       0.00000000       0.00000000       0.00000000       0.00000000       0.03802718
Hf       0.00000000       0.00000000       5.76161616       0.00000000       0.00000000      -0.03802718
2
Properties=species:S:1:pos:R:3:forces:R:3 energy=-6.978615593853138 pbc="F F F"
Hf       0.00000000       0.00000000       0.00000000       0.00000000       0.00000000       0.02858940
Hf       0.00000000       0.00000000       5.82121212       0.00000000       0.00000000      -0.02858940
2
Properties=species:S:1:pos:R:3:forces:R:3 energy=-6.977096787742016 pbc="F F F"
Hf       0.00000000       0.00000000       0.00000000       0.00000000       0.00000000       0.02289764
Hf       0.00000000       0.00000000       5.88080808       0.00000000       0.00000000      -0.02289764
2
Properties=species:S:1:pos:R:3:forces:R:3 energy=-6.975825345790867 pbc="F F F"
Hf       0.00000000       0.00000000       0.00000000       0.00000000       0.00000000       0.02026729
Hf       0.00000000       0.00000000       5.94040404       0.00000000       0.00000000      -0.02026729
2
Properties=species:S:1:pos:R:3:forces:R:3 energy=-6.974648812837896 pbc="F F F"
Hf       0.00000000       0.00000000       0.00000000       0.00000000       0.00000000       0.01939954
Hf       0.00000000       0.00000000       6.00000000       0.00000000       0.00000000      -0.01939954
