2
Properties=species:S:1:pos:R:3:forces:R:3 energy=-19233.11695027469 pbc="F F F"
K        0.00000000       0.00000000       0.00000000       0.00000000       0.00000000  155740.57812500
K        0.00000000       0.00000000       0.10000000       0.00000000       0.00000000 -155740.57812500
2
Properties=species:S:1:pos:R:3:forces:R:3 energy=-10164.505622149689 pbc="F F F"
K        0.00000000       0.00000000       0.00000000       0.00000000       0.00000000  136087.40625000
K        0.00000000       0.00000000       0.15959596       0.00000000       0.00000000 -136087.40625000
2
Properties=species:S:1:pos:R:3:forces:R:3 energy=2956.8818290221857 pbc="F F F"
K        0.00000000       0.00000000       0.00000000       0.00000000       0.00000000  202097.92187500
K        0.00000000       0.00000000       0.21919192       0.00000000       0.00000000 -202097.92187500
2
Properties=species:S:1:pos:R:3:forces:R:3 energy=12708.951409100311 pbc="F F F"
K        0.00000000       0.00000000       0.00000000       0.00000000       0.00000000   40033.95703125
K        0.00000000       0.00000000       0.27878788       0.00000000       0.00000000  -40033.95703125
2
Properties=species:S:1:pos:R:3:forces:R:3 energy=10748.882073164394 pbc="F F F"
K        0.00000000       0.00000000       0.00000000       0.00000000       0.00000000  -83486.93750000
K        0.00000000       0.00000000       0.33838384       0.00000000       0.00000000   83486.93750000
2
Properties=species:S:1:pos:R:3:forces:R:3 energy=5592.904534101895 pbc="F F F"
K        0.00000000       0.00000000       0.00000000       0.00000000       0.00000000  -77459.60937500
K        0.00000000       0.00000000       0.39797980       0.00000000       0.00000000   77459.60937500
2
Properties=species:S:1:pos:R:3:forces:R:3 energy=2042.192742111291 pbc="F F F"
K        0.00000000       0.00000000       0.00000000       0.00000000       0.00000000  -40305.39062500
K        0.00000000       0.00000000       0.45757576       0.00000000       0.00000000   40305.39062500
2
Properties=species:S:1:pos:R:3:forces:R:3 energy=645.7012870363337 pbc="F F F"
K        0.00000000       0.00000000       0.00000000       0.00000000       0.00000000  -11650.08593750
K        0.00000000       0.00000000       0.51717172       0.00000000       0.00000000   11650.08593750
2
Properties=species:S:1:pos:R:3:forces:R:3 energy=278.64489055671044 pbc="F F F"
K        0.00000000       0.00000000       0.00000000       0.00000000       0.00000000   -2876.27148438
K        0.00000000       0.00000000       0.57676768       0.00000000       0.00000000    2876.27148438
2
Properties=species:S:1:pos:R:3:forces:R:3 energy=174.98627545390923 pbc="F F F"
K        0.00000000       0.00000000       0.00000000       0.00000000       0.00000000    -944.06695557
K        0.00000000       0.00000000       0.63636364       0.00000000       0.00000000     944.06695557
2
Properties=species:S:1:pos:R:3:forces:R:3 energy=123.18642500429723 pbc="F F F"
K        0.00000000       0.00000000       0.00000000       0.00000000       0.00000000    -787.64031982
K        0.00000000       0.00000000       0.69595960       0.00000000       0.00000000     787.64031982
2
Properties=species:S:1:pos:R:3:forces:R:3 energy=74.94174271287636 pbc="F F F"
K        0.00000000       0.00000000       0.00000000       0.00000000       0.00000000    -680.25878906
K        0.00000000       0.00000000       0.75555556       0.00000000       0.00000000     680.25878906
2
Properties=species:S:1:pos:R:3:forces:R:3 energy=45.737862437663814 pbc="F F F"
K        0.00000000       0.00000000       0.00000000       0.00000000       0.00000000    -290.58917236
K        0.00000000       0.00000000       0.81515152       0.00000000       0.00000000     290.58917236
2
Properties=species:S:1:pos:R:3:forces:R:3 energy=37.63124932600146 pbc="F F F"
K        0.00000000       0.00000000       0.00000000       0.00000000       0.00000000      16.12679672
K        0.00000000       0.00000000       0.87474747       0.00000000       0.00000000     -16.12679672
2
Properties=species:S:1:pos:R:3:forces:R:3 energy=43.14833542157846 pbc="F F F"
K        0.00000000       0.00000000       0.00000000       0.00000000       0.00000000     124.78819275
K        0.00000000       0.00000000       0.93434343       0.00000000       0.00000000    -124.78819275
2
Properties=species:S:1:pos:R:3:forces:R:3 energy=50.23661142445304 pbc="F F F"
K        0.00000000       0.00000000       0.00000000       0.00000000       0.00000000     105.61192322
K        0.00000000       0.00000000       0.99393939       0.00000000       0.00000000    -105.61192322
2
Properties=species:S:1:pos:R:3:forces:R:3 energy=55.61651343873616 pbc="F F F"
K        0.00000000       0.00000000       0.00000000       0.00000000       0.00000000      67.10993958
K        0.00000000       0.00000000       1.05353535       0.00000000       0.00000000     -67.10993958
2
Properties=species:S:1:pos:R:3:forces:R:3 energy=57.45756661566394 pbc="F F F"
K        0.00000000       0.00000000       0.00000000       0.00000000       0.00000000      -7.91802168
K        0.00000000       0.00000000       1.11313131       0.00000000       0.00000000       7.91802168
2
Properties=species:S:1:pos:R:3:forces:R:3 energy=55.06553421570439 pbc="F F F"
K        0.00000000       0.00000000       0.00000000       0.00000000       0.00000000     -60.86966705
K        0.00000000       0.00000000       1.17272727       0.00000000       0.00000000      60.86966705
2
Properties=species:S:1:pos:R:3:forces:R:3 energy=51.52855864496441 pbc="F F F"
K        0.00000000       0.00000000       0.00000000       0.00000000       0.00000000     -55.01409149
K        0.00000000       0.00000000       1.23232323       0.00000000       0.00000000      55.01409149
2
Properties=species:S:1:pos:R:3:forces:R:3 energy=47.532099054662105 pbc="F F F"
K        0.00000000       0.00000000       0.00000000       0.00000000       0.00000000     -80.59716034
K        0.00000000       0.00000000       1.29191919       0.00000000       0.00000000      80.59716034
2
Properties=species:S:1:pos:R:3:forces:R:3 energy=42.276140969538694 pbc="F F F"
K        0.00000000       0.00000000       0.00000000       0.00000000       0.00000000     -93.16287994
K        0.00000000       0.00000000       1.35151515       0.00000000       0.00000000      93.16287994
2
Properties=species:S:1:pos:R:3:forces:R:3 energy=36.49721852883738 pbc="F F F"
K        0.00000000       0.00000000       0.00000000       0.00000000       0.00000000     -98.80870056
K        0.00000000       0.00000000       1.41111111       0.00000000       0.00000000      98.80870056
2
Properties=species:S:1:pos:R:3:forces:R:3 energy=30.789516633389013 pbc="F F F"
K        0.00000000       0.00000000       0.00000000       0.00000000       0.00000000     -91.08641052
K        0.00000000       0.00000000       1.47070707       0.00000000       0.00000000      91.08641052
2
Properties=species:S:1:pos:R:3:forces:R:3 energy=25.676779891666055 pbc="F F F"
K        0.00000000       0.00000000       0.00000000       0.00000000       0.00000000     -80.19700623
K        0.00000000       0.00000000       1.53030303       0.00000000       0.00000000      80.19700623
2
Properties=species:S:1:pos:R:3:forces:R:3 energy=21.23925049708088 pbc="F F F"
K        0.00000000       0.00000000       0.00000000       0.00000000       0.00000000     -69.61914825
K        0.00000000       0.00000000       1.58989899       0.00000000       0.00000000      69.61914825
2
Properties=species:S:1:pos:R:3:forces:R:3 energy=17.379222643415083 pbc="F F F"
K        0.00000000       0.00000000       0.00000000       0.00000000       0.00000000     -59.12516022
K        0.00000000       0.00000000       1.64949495       0.00000000       0.00000000      59.12516022
2
Properties=species:S:1:pos:R:3:forces:R:3 energy=14.175786495010286 pbc="F F F"
K        0.00000000       0.00000000       0.00000000       0.00000000       0.00000000     -48.52557373
K        0.00000000       0.00000000       1.70909091       0.00000000       0.00000000      48.52557373
2
Properties=species:S:1:pos:R:3:forces:R:3 energy=11.632567964383064 pbc="F F F"
K        0.00000000       0.00000000       0.00000000       0.00000000       0.00000000     -37.31315613
K        0.00000000       0.00000000       1.76868687       0.00000000       0.00000000      37.31315613
2
Properties=species:S:1:pos:R:3:forces:R:3 energy=9.64164550979633 pbc="F F F"
K        0.00000000       0.00000000       0.00000000       0.00000000       0.00000000     -29.70205116
K        0.00000000       0.00000000       1.82828283       0.00000000       0.00000000      29.70205116
2
Properties=species:S:1:pos:R:3:forces:R:3 energy=8.066371011754208 pbc="F F F"
K        0.00000000       0.00000000       0.00000000       0.00000000       0.00000000     -23.38223076
K        0.00000000       0.00000000       1.88787879       0.00000000       0.00000000      23.38223076
2
Properties=species:S:1:pos:R:3:forces:R:3 energy=6.812931125358478 pbc="F F F"
K        0.00000000       0.00000000       0.00000000       0.00000000       0.00000000     -19.05260658
K        0.00000000       0.00000000       1.94747475       0.00000000       0.00000000      19.05260658
2
Properties=species:S:1:pos:R:3:forces:R:3 energy=5.767446716504841 pbc="F F F"
K        0.00000000       0.00000000       0.00000000       0.00000000       0.00000000     -16.18138885
K        0.00000000       0.00000000       2.00707071       0.00000000       0.00000000      16.18138885
2
Properties=species:S:1:pos:R:3:forces:R:3 energy=4.861024919696197 pbc="F F F"
K        0.00000000       0.00000000       0.00000000       0.00000000       0.00000000     -14.43004036
K        0.00000000       0.00000000       2.06666667       0.00000000       0.00000000      14.43004036
2
Properties=species:S:1:pos:R:3:forces:R:3 energy=4.0400483541341305 pbc="F F F"
K        0.00000000       0.00000000       0.00000000       0.00000000       0.00000000     -13.12717438
K        0.00000000       0.00000000       2.12626263       0.00000000       0.00000000      13.12717438
2
Properties=species:S:1:pos:R:3:forces:R:3 energy=3.29042372372501 pbc="F F F"
K        0.00000000       0.00000000       0.00000000       0.00000000       0.00000000     -12.07655621
K        0.00000000       0.00000000       2.18585859       0.00000000       0.00000000      12.07655621
2
Properties=species:S:1:pos:R:3:forces:R:3 energy=2.604699137737678 pbc="F F F"
K        0.00000000       0.00000000       0.00000000       0.00000000       0.00000000     -10.87794590
K        0.00000000       0.00000000       2.24545455       0.00000000       0.00000000      10.87794590
2
Properties=species:S:1:pos:R:3:forces:R:3 energy=1.9956134275664175 pbc="F F F"
K        0.00000000       0.00000000       0.00000000       0.00000000       0.00000000      -9.56381321
K        0.00000000       0.00000000       2.30505051       0.00000000       0.00000000       9.56381321
2
Properties=species:S:1:pos:R:3:forces:R:3 energy=1.4651732681088547 pbc="F F F"
K        0.00000000       0.00000000       0.00000000       0.00000000       0.00000000      -8.23715401
K        0.00000000       0.00000000       2.36464646       0.00000000       0.00000000       8.23715401
2
Properties=species:S:1:pos:R:3:forces:R:3 energy=1.0132538911723812 pbc="F F F"
K        0.00000000       0.00000000       0.00000000       0.00000000       0.00000000      -6.93757582
K        0.00000000       0.00000000       2.42424242       0.00000000       0.00000000       6.93757582
2
Properties=species:S:1:pos:R:3:forces:R:3 energy=0.6361885694819667 pbc="F F F"
K        0.00000000       0.00000000       0.00000000       0.00000000       0.00000000      -5.74097538
K        0.00000000       0.00000000       2.48383838       0.00000000       0.00000000       5.74097538
2
Properties=species:S:1:pos:R:3:forces:R:3 energy=0.32586650413328255 pbc="F F F"
K        0.00000000       0.00000000       0.00000000       0.00000000       0.00000000      -4.70335197
K        0.00000000       0.00000000       2.54343434       0.00000000       0.00000000       4.70335197
2
Properties=species:S:1:pos:R:3:forces:R:3 energy=0.07126150591719087 pbc="F F F"
K        0.00000000       0.00000000       0.00000000       0.00000000       0.00000000      -3.87952495
K        0.00000000       0.00000000       2.60303030       0.00000000       0.00000000       3.87952495
2
Properties=species:S:1:pos:R:3:forces:R:3 energy=-0.14068773002408028 pbc="F F F"
K        0.00000000       0.00000000       0.00000000       0.00000000       0.00000000      -3.26264620
K        0.00000000       0.00000000       2.66262626       0.00000000       0.00000000       3.26264620
2
Properties=species:S:1:pos:R:3:forces:R:3 energy=-0.3203531374725706 pbc="F F F"
K        0.00000000       0.00000000       0.00000000       0.00000000       0.00000000      -2.78370905
K        0.00000000       0.00000000       2.72222222       0.00000000       0.00000000       2.78370905
2
Properties=species:S:1:pos:R:3:forces:R:3 energy=-0.47402682039735633 pbc="F F F"
K        0.00000000       0.00000000       0.00000000       0.00000000       0.00000000      -2.38405704
K        0.00000000       0.00000000       2.78181818       0.00000000       0.00000000       2.38405704
2
Properties=species:S:1:pos:R:3:forces:R:3 energy=-0.6056843856782079 pbc="F F F"
K        0.00000000       0.00000000       0.00000000       0.00000000       0.00000000      -2.04386163
K        0.00000000       0.00000000       2.84141414       0.00000000       0.00000000       2.04386163
2
Properties=species:S:1:pos:R:3:forces:R:3 energy=-0.7187740646335675 pbc="F F F"
K        0.00000000       0.00000000       0.00000000       0.00000000       0.00000000      -1.76068354
K        0.00000000       0.00000000       2.90101010       0.00000000       0.00000000       1.76068354
2
Properties=species:S:1:pos:R:3:forces:R:3 energy=-0.8166010152596612 pbc="F F F"
K        0.00000000       0.00000000       0.00000000       0.00000000       0.00000000      -1.53048396
K        0.00000000       0.00000000       2.96060606       0.00000000       0.00000000       1.53048396
2
Properties=species:S:1:pos:R:3:forces:R:3 energy=-0.9020365386791043 pbc="F F F"
K        0.00000000       0.00000000       0.00000000       0.00000000       0.00000000      -1.34260952
K        0.00000000       0.00000000       3.02020202       0.00000000       0.00000000       1.34260952
2
Properties=species:S:1:pos:R:3:forces:R:3 energy=-0.9772280306840946 pbc="F F F"
K        0.00000000       0.00000000       0.00000000       0.00000000       0.00000000      -1.18510020
K        0.00000000       0.00000000       3.07979798       0.00000000       0.00000000       1.18510020
2
Properties=species:S:1:pos:R:3:forces:R:3 energy=-1.0437679341458794 pbc="F F F"
K        0.00000000       0.00000000       0.00000000       0.00000000       0.00000000      -1.05179298
K        0.00000000       0.00000000       3.13939394       0.00000000       0.00000000       1.05179298
2
Properties=species:S:1:pos:R:3:forces:R:3 energy=-1.1030441794799917 pbc="F F F"
K        0.00000000       0.00000000       0.00000000       0.00000000       0.00000000      -0.94114953
K        0.00000000       0.00000000       3.19898990       0.00000000       0.00000000       0.94114953
2
Properties=species:S:1:pos:R:3:forces:R:3 energy=-1.156369423355233 pbc="F F F"
K        0.00000000       0.00000000       0.00000000       0.00000000       0.00000000      -0.85177761
K        0.00000000       0.00000000       3.25858586       0.00000000       0.00000000       0.85177761
2
Properties=species:S:1:pos:R:3:forces:R:3 energy=-1.2049300873063669 pbc="F F F"
K        0.00000000       0.00000000       0.00000000       0.00000000       0.00000000      -0.78058743
K        0.00000000       0.00000000       3.31818182       0.00000000       0.00000000       0.78058743
2
Properties=species:S:1:pos:R:3:forces:R:3 energy=-1.2496771826157347 pbc="F F F"
K        0.00000000       0.00000000       0.00000000       0.00000000       0.00000000      -0.72285491
K        0.00000000       0.00000000       3.37777778       0.00000000       0.00000000       0.72285491
2
Properties=species:S:1:pos:R:3:forces:R:3 energy=-1.2912410340735796 pbc="F F F"
K        0.00000000       0.00000000       0.00000000       0.00000000       0.00000000      -0.67274952
K        0.00000000       0.00000000       3.43737374       0.00000000       0.00000000       0.67274952
2
Properties=species:S:1:pos:R:3:forces:R:3 energy=-1.3299010625910326 pbc="F F F"
K        0.00000000       0.00000000       0.00000000       0.00000000       0.00000000      -0.62457430
K        0.00000000       0.00000000       3.49696970       0.00000000       0.00000000       0.62457430
2
Properties=species:S:1:pos:R:3:forces:R:3 energy=-1.3656483522381453 pbc="F F F"
K        0.00000000       0.00000000       0.00000000       0.00000000       0.00000000      -0.57461262
K        0.00000000       0.00000000       3.55656566       0.00000000       0.00000000       0.57461262
2
Properties=species:S:1:pos:R:3:forces:R:3 energy=-1.3983371933453506 pbc="F F F"
K        0.00000000       0.00000000       0.00000000       0.00000000       0.00000000      -0.52210653
K        0.00000000       0.00000000       3.61616162       0.00000000       0.00000000       0.52210653
2
Properties=species:S:1:pos:R:3:forces:R:3 energy=-1.4278588476340202 pbc="F F F"
K        0.00000000       0.00000000       0.00000000       0.00000000       0.00000000      -0.46862334
K        0.00000000       0.00000000       3.67575758       0.00000000       0.00000000       0.46862334
2
Properties=species:S:1:pos:R:3:forces:R:3 energy=-1.454224270711941 pbc="F F F"
K        0.00000000       0.00000000       0.00000000       0.00000000       0.00000000      -0.41659838
K        0.00000000       0.00000000       3.73535354       0.00000000       0.00000000       0.41659838
2
Properties=species:S:1:pos:R:3:forces:R:3 energy=-1.4775839419171426 pbc="F F F"
K        0.00000000       0.00000000       0.00000000       0.00000000       0.00000000      -0.36802945
K        0.00000000       0.00000000       3.79494949       0.00000000       0.00000000       0.36802945
2
Properties=species:S:1:pos:R:3:forces:R:3 energy=-1.4981766675999082 pbc="F F F"
K        0.00000000       0.00000000       0.00000000       0.00000000       0.00000000      -0.32380870
K        0.00000000       0.00000000       3.85454545       0.00000000       0.00000000       0.32380870
2
Properties=species:S:1:pos:R:3:forces:R:3 energy=-1.5162617298703687 pbc="F F F"
K        0.00000000       0.00000000       0.00000000       0.00000000       0.00000000      -0.28377846
K        0.00000000       0.00000000       3.91414141       0.00000000       0.00000000       0.28377846
2
Properties=species:S:1:pos:R:3:forces:R:3 energy=-1.5320710877693906 pbc="F F F"
K        0.00000000       0.00000000       0.00000000       0.00000000       0.00000000      -0.24725233
K        0.00000000       0.00000000       3.97373737       0.00000000       0.00000000       0.24725233
2
Properties=species:S:1:pos:R:3:forces:R:3 energy=-1.5457900419573722 pbc="F F F"
K        0.00000000       0.00000000       0.00000000       0.00000000       0.00000000      -0.21361199
K        0.00000000       0.00000000       4.03333333       0.00000000       0.00000000       0.21361199
2
Properties=species:S:1:pos:R:3:forces:R:3 energy=-1.5575840200710722 pbc="F F F"
K        0.00000000       0.00000000       0.00000000       0.00000000       0.00000000      -0.18267199
K        0.00000000       0.00000000       4.09292929       0.00000000       0.00000000       0.18267199
2
Properties=species:S:1:pos:R:3:forces:R:3 energy=-1.567622883964344 pbc="F F F"
K        0.00000000       0.00000000       0.00000000       0.00000000       0.00000000      -0.15476526
K        0.00000000       0.00000000       4.15252525       0.00000000       0.00000000       0.15476526
2
Properties=species:S:1:pos:R:3:forces:R:3 energy=-1.5761065130217224 pbc="F F F"
K        0.00000000       0.00000000       0.00000000       0.00000000       0.00000000      -0.13065544
K        0.00000000       0.00000000       4.21212121       0.00000000       0.00000000       0.13065544
2
Properties=species:S:1:pos:R:3:forces:R:3 energy=-1.583293875436712 pbc="F F F"
K        0.00000000       0.00000000       0.00000000       0.00000000       0.00000000      -0.11148043
K        0.00000000       0.00000000       4.27171717       0.00000000       0.00000000       0.11148043
2
Properties=species:S:1:pos:R:3:forces:R:3 energy=-1.5895231787138833 pbc="F F F"
K        0.00000000       0.00000000       0.00000000       0.00000000       0.00000000      -0.09884714
K        0.00000000       0.00000000       4.33131313       0.00000000       0.00000000       0.09884714
2
Properties=species:S:1:pos:R:3:forces:R:3 energy=-1.59525060832652 pbc="F F F"
K        0.00000000       0.00000000       0.00000000       0.00000000       0.00000000      -0.09502359
K        0.00000000       0.00000000       4.39090909       0.00000000       0.00000000       0.09502359
2
Properties=species:S:1:pos:R:3:forces:R:3 energy=-1.6010829220489242 pbc="F F F"
K        0.00000000       0.00000000       0.00000000       0.00000000       0.00000000      -0.10289786
K        0.00000000       0.00000000       4.45050505       0.00000000       0.00000000       0.10289786
2
Properties=species:S:1:pos:R:3:forces:R:3 energy=-1.6077973677653523 pbc="F F F"
K        0.00000000       0.00000000       0.00000000       0.00000000       0.00000000      -0.12488844
K        0.00000000       0.00000000       4.51010101       0.00000000       0.00000000       0.12488844
2
Properties=species:S:1:pos:R:3:forces:R:3 energy=-1.6162296321768403 pbc="F F F"
K        0.00000000       0.00000000       0.00000000       0.00000000       0.00000000      -0.15980338
K        0.00000000       0.00000000       4.56969697       0.00000000       0.00000000       0.15980338
2
Properties=species:S:1:pos:R:3:forces:R:3 energy=-1.6269243515420568 pbc="F F F"
K        0.00000000       0.00000000       0.00000000       0.00000000       0.00000000      -0.19848923
K        0.00000000       0.00000000       4.62929293       0.00000000       0.00000000       0.19848923
2
Properties=species:S:1:pos:R:3:forces:R:3 energy=-1.6396184146369053 pbc="F F F"
K        0.00000000       0.00000000       0.00000000       0.00000000       0.00000000      -0.22358721
K        0.00000000       0.00000000       4.68888889       0.00000000       0.00000000       0.22358721
2
Properties=species:S:1:pos:R:3:forces:R:3 energy=-1.6529700888434857 pbc="F F F"
K        0.00000000       0.00000000       0.00000000       0.00000000       0.00000000      -0.21869737
K        0.00000000       0.00000000       4.74848485       0.00000000       0.00000000       0.21869737
2
Properties=species:S:1:pos:R:3:forces:R:3 energy=-1.6650118262140126 pbc="F F F"
K        0.00000000       0.00000000       0.00000000       0.00000000       0.00000000      -0.18041086
K        0.00000000       0.00000000       4.80808081       0.00000000       0.00000000       0.18041086
2
Properties=species:S:1:pos:R:3:forces:R:3 energy=-1.674024920606707 pbc="F F F"
K        0.00000000       0.00000000       0.00000000       0.00000000       0.00000000      -0.11968707
K        0.00000000       0.00000000       4.86767677       0.00000000       0.00000000       0.11968707
2
Properties=species:S:1:pos:R:3:forces:R:3 energy=-1.679148531444088 pbc="F F F"
K        0.00000000       0.00000000       0.00000000       0.00000000       0.00000000      -0.05234107
K        0.00000000       0.00000000       4.92727273       0.00000000       0.00000000       0.05234107
2
Properties=species:S:1:pos:R:3:forces:R:3 energy=-1.680370890543427 pbc="F F F"
K        0.00000000       0.00000000       0.00000000       0.00000000       0.00000000       0.00979166
K        0.00000000       0.00000000       4.98686869       0.00000000       0.00000000      -0.00979166
2
Properties=species:S:1:pos:R:3:forces:R:3 energy=-1.6781991142526846 pbc="F F F"
K        0.00000000       0.00000000       0.00000000       0.00000000       0.00000000       0.06111892
K        0.00000000       0.00000000       5.04646465       0.00000000       0.00000000      -0.06111892
2
Properties=species:S:1:pos:R:3:forces:R:3 energy=-1.673326049578486 pbc="F F F"
K        0.00000000       0.00000000       0.00000000       0.00000000       0.00000000       0.10042535
K        0.00000000       0.00000000       5.10606061       0.00000000       0.00000000      -0.10042535
2
Properties=species:S:1:pos:R:3:forces:R:3 energy=-1.6664512564261258 pbc="F F F"
K        0.00000000       0.00000000       0.00000000       0.00000000       0.00000000       0.12849906
K        0.00000000       0.00000000       5.16565657       0.00000000       0.00000000      -0.12849906
2
Properties=species:S:1:pos:R:3:forces:R:3 energy=-1.658206889552554 pbc="F F F"
K        0.00000000       0.00000000       0.00000000       0.00000000       0.00000000       0.14666514
K        0.00000000       0.00000000       5.22525253       0.00000000       0.00000000      -0.14666514
2
Properties=species:S:1:pos:R:3:forces:R:3 energy=-1.6491421159220487 pbc="F F F"
K        0.00000000       0.00000000       0.00000000       0.00000000       0.00000000       0.15623078
K        0.00000000       0.00000000       5.28484848       0.00000000       0.00000000      -0.15623078
2
Properties=species:S:1:pos:R:3:forces:R:3 energy=-1.6397315294989467 pbc="F F F"
K        0.00000000       0.00000000       0.00000000       0.00000000       0.00000000       0.15841213
K        0.00000000       0.00000000       5.34444444       0.00000000       0.00000000      -0.15841213
2
Properties=species:S:1:pos:R:3:forces:R:3 energy=-1.6303822859531947 pbc="F F F"
K        0.00000000       0.00000000       0.00000000       0.00000000       0.00000000       0.15444569
K        0.00000000       0.00000000       5.40404040       0.00000000       0.00000000      -0.15444569
2
Properties=species:S:1:pos:R:3:forces:R:3 energy=-1.621417836314818 pbc="F F F"
K        0.00000000       0.00000000       0.00000000       0.00000000       0.00000000       0.14569537
K        0.00000000       0.00000000       5.46363636       0.00000000       0.00000000      -0.14569537
2
Properties=species:S:1:pos:R:3:forces:R:3 energy=-1.6130824647047104 pbc="F F F"
K        0.00000000       0.00000000       0.00000000       0.00000000       0.00000000       0.13368255
K        0.00000000       0.00000000       5.52323232       0.00000000       0.00000000      -0.13368255
2
Properties=species:S:1:pos:R:3:forces:R:3 energy=-1.605519230857849 pbc="F F F"
K        0.00000000       0.00000000       0.00000000       0.00000000       0.00000000       0.12001443
K        0.00000000       0.00000000       5.58282828       0.00000000       0.00000000      -0.12001443
2
Properties=species:S:1:pos:R:3:forces:R:3 energy=-1.59877936386758 pbc="F F F"
K        0.00000000       0.00000000       0.00000000       0.00000000       0.00000000       0.10625285
K        0.00000000       0.00000000       5.64242424       0.00000000       0.00000000      -0.10625285
2
Properties=species:S:1:pos:R:3:forces:R:3 energy=-1.5928285551442403 pbc="F F F"
K        0.00000000       0.00000000       0.00000000       0.00000000       0.00000000       0.09372766
K        0.00000000       0.00000000       5.70202020       0.00000000       0.00000000      -0.09372766
2
Properties=species:S:1:pos:R:3:forces:R:3 energy=-1.5875637287676034 pbc="F F F"
K        0.00000000       0.00000000       0.00000000       0.00000000       0.00000000       0.08340290
K        0.00000000       0.00000000       5.76161616       0.00000000       0.00000000      -0.08340290
2
Properties=species:S:1:pos:R:3:forces:R:3 energy=-1.582834826628967 pbc="F F F"
K        0.00000000       0.00000000       0.00000000       0.00000000       0.00000000       0.07573340
K        0.00000000       0.00000000       5.82121212       0.00000000       0.00000000      -0.07573340
2
Properties=species:S:1:pos:R:3:forces:R:3 energy=-1.5784849424602116 pbc="F F F"
K        0.00000000       0.00000000       0.00000000       0.00000000       0.00000000       0.07067338
K        0.00000000       0.00000000       5.88080808       0.00000000       0.00000000      -0.07067338
2
Properties=species:S:1:pos:R:3:forces:R:3 energy=-1.574370122255389 pbc="F F F"
K        0.00000000       0.00000000       0.00000000       0.00000000       0.00000000       0.06765454
K        0.00000000       0.00000000       5.94040404       0.00000000       0.00000000      -0.06765454
2
Properties=species:S:1:pos:R:3:forces:R:3 energy=-1.5703976979850345 pbc="F F F"
K        0.00000000       0.00000000       0.00000000       0.00000000       0.00000000       0.06572454
K        0.00000000       0.00000000       6.00000000       0.00000000       0.00000000      -0.06572454
