2
Properties=species:S:1:pos:R:3:forces:R:3 energy=-5500.764572040463 pbc="F F F"
Li       0.00000000       0.00000000       0.00000000       0.00000000       0.00000000   26893.46875000
Li       0.00000000       0.00000000       0.10000000       0.00000000       0.00000000  -26893.46875000
2
Properties=species:S:1:pos:R:3:forces:R:3 energy=-3751.483810321712 pbc="F F F"
Li       0.00000000       0.00000000       0.00000000       0.00000000       0.00000000   29976.82031250
Li       0.00000000       0.00000000       0.15959596       0.00000000       0.00000000  -29976.82031250
2
Properties=species:S:1:pos:R:3:forces:R:3 energy=-2113.094650165462 pbc="F F F"
Li       0.00000000       0.00000000       0.00000000       0.00000000       0.00000000   23897.06835938
Li       0.00000000       0.00000000       0.21919192       0.00000000       0.00000000  -23897.06835938
2
Properties=species:S:1:pos:R:3:forces:R:3 energy=-968.7436980170246 pbc="F F F"
Li       0.00000000       0.00000000       0.00000000       0.00000000       0.00000000   14459.73046875
Li       0.00000000       0.00000000       0.27878788       0.00000000       0.00000000  -14459.73046875
2
Properties=species:S:1:pos:R:3:forces:R:3 energy=-355.540908710384 pbc="F F F"
Li       0.00000000       0.00000000       0.00000000       0.00000000       0.00000000    6648.91845703
Li       0.00000000       0.00000000       0.33838384       0.00000000       0.00000000   -6648.91845703
2
Properties=species:S:1:pos:R:3:forces:R:3 energy=-103.24443043573179 pbc="F F F"
Li       0.00000000       0.00000000       0.00000000       0.00000000       0.00000000    2356.48266602
Li       0.00000000       0.00000000       0.39797980       0.00000000       0.00000000   -2356.48266602
2
Properties=species:S:1:pos:R:3:forces:R:3 energy=-15.939616090712054 pbc="F F F"
Li       0.00000000       0.00000000       0.00000000       0.00000000       0.00000000    1227.41223145
Li       0.00000000       0.00000000       0.45757576       0.00000000       0.00000000   -1227.41223145
2
Properties=species:S:1:pos:R:3:forces:R:3 energy=36.13579572011297 pbc="F F F"
Li       0.00000000       0.00000000       0.00000000       0.00000000       0.00000000     471.20318604
Li       0.00000000       0.00000000       0.51717172       0.00000000       0.00000000    -471.20318604
2
Properties=species:S:1:pos:R:3:forces:R:3 energy=39.391784818578664 pbc="F F F"
Li       0.00000000       0.00000000       0.00000000       0.00000000       0.00000000    -180.78295898
Li       0.00000000       0.00000000       0.57676768       0.00000000       0.00000000     180.78295898
2
Properties=species:S:1:pos:R:3:forces:R:3 energy=26.08785457399976 pbc="F F F"
Li       0.00000000       0.00000000       0.00000000       0.00000000       0.00000000    -220.56079102
Li       0.00000000       0.00000000       0.63636364       0.00000000       0.00000000     220.56079102
2
Properties=species:S:1:pos:R:3:forces:R:3 energy=16.939094795437256 pbc="F F F"
Li       0.00000000       0.00000000       0.00000000       0.00000000       0.00000000     -99.61037445
Li       0.00000000       0.00000000       0.69595960       0.00000000       0.00000000      99.61037445
2
Properties=species:S:1:pos:R:3:forces:R:3 energy=12.244755141442477 pbc="F F F"
Li       0.00000000       0.00000000       0.00000000       0.00000000       0.00000000     -62.66798782
Li       0.00000000       0.00000000       0.75555556       0.00000000       0.00000000      62.66798782
2
Properties=species:S:1:pos:R:3:forces:R:3 energy=9.071373481742375 pbc="F F F"
Li       0.00000000       0.00000000       0.00000000       0.00000000       0.00000000     -40.58615112
Li       0.00000000       0.00000000       0.81515152       0.00000000       0.00000000      40.58615112
2
Properties=species:S:1:pos:R:3:forces:R:3 energy=6.8203246490705896 pbc="F F F"
Li       0.00000000       0.00000000       0.00000000       0.00000000       0.00000000     -31.66799355
Li       0.00000000       0.00000000       0.87474747       0.00000000       0.00000000      31.66799355
2
Properties=species:S:1:pos:R:3:forces:R:3 energy=5.35611824970532 pbc="F F F"
Li       0.00000000       0.00000000       0.00000000       0.00000000       0.00000000     -19.04480171
Li       0.00000000       0.00000000       0.93434343       0.00000000       0.00000000      19.04480171
2
Properties=species:S:1:pos:R:3:forces:R:3 energy=4.4441666412004945 pbc="F F F"
Li       0.00000000       0.00000000       0.00000000       0.00000000       0.00000000     -11.98741913
Li       0.00000000       0.00000000       0.99393939       0.00000000       0.00000000      11.98741913
2
Properties=species:S:1:pos:R:3:forces:R:3 energy=3.901811662906553 pbc="F F F"
Li       0.00000000       0.00000000       0.00000000       0.00000000       0.00000000      -6.30178499
Li       0.00000000       0.00000000       1.05353535       0.00000000       0.00000000       6.30178499
2
Properties=species:S:1:pos:R:3:forces:R:3 energy=3.5186766133354075 pbc="F F F"
Li       0.00000000       0.00000000       0.00000000       0.00000000       0.00000000      -7.21493196
Li       0.00000000       0.00000000       1.11313131       0.00000000       0.00000000       7.21493196
2
Properties=species:S:1:pos:R:3:forces:R:3 energy=3.0523737699818554 pbc="F F F"
Li       0.00000000       0.00000000       0.00000000       0.00000000       0.00000000      -7.91725779
Li       0.00000000       0.00000000       1.17272727       0.00000000       0.00000000       7.91725779
2
Properties=species:S:1:pos:R:3:forces:R:3 energy=2.60982534110881 pbc="F F F"
Li       0.00000000       0.00000000       0.00000000       0.00000000       0.00000000      -6.70836782
Li       0.00000000       0.00000000       1.23232323       0.00000000       0.00000000       6.70836782
2
Properties=species:S:1:pos:R:3:forces:R:3 energy=2.242532668933334 pbc="F F F"
Li       0.00000000       0.00000000       0.00000000       0.00000000       0.00000000      -5.48136997
Li       0.00000000       0.00000000       1.29191919       0.00000000       0.00000000       5.48136997
2
Properties=species:S:1:pos:R:3:forces:R:3 energy=1.9279671842745163 pbc="F F F"
Li       0.00000000       0.00000000       0.00000000       0.00000000       0.00000000      -5.16841412
Li       0.00000000       0.00000000       1.35151515       0.00000000       0.00000000       5.16841412
2
Properties=species:S:1:pos:R:3:forces:R:3 energy=1.6183661097945363 pbc="F F F"
Li       0.00000000       0.00000000       0.00000000       0.00000000       0.00000000      -5.16175890
Li       0.00000000       0.00000000       1.41111111       0.00000000       0.00000000       5.16175890
2
Properties=species:S:1:pos:R:3:forces:R:3 energy=1.3118908707012267 pbc="F F F"
Li       0.00000000       0.00000000       0.00000000       0.00000000       0.00000000      -5.10359383
Li       0.00000000       0.00000000       1.47070707       0.00000000       0.00000000       5.10359383
2
Properties=species:S:1:pos:R:3:forces:R:3 energy=1.0141367993379178 pbc="F F F"
Li       0.00000000       0.00000000       0.00000000       0.00000000       0.00000000      -4.88323593
Li       0.00000000       0.00000000       1.53030303       0.00000000       0.00000000       4.88323593
2
Properties=species:S:1:pos:R:3:forces:R:3 energy=0.7313062560055321 pbc="F F F"
Li       0.00000000       0.00000000       0.00000000       0.00000000       0.00000000      -4.64069462
Li       0.00000000       0.00000000       1.58989899       0.00000000       0.00000000       4.64069462
2
Properties=species:S:1:pos:R:3:forces:R:3 energy=0.4575958219622423 pbc="F F F"
Li       0.00000000       0.00000000       0.00000000       0.00000000       0.00000000      -4.49387407
Li       0.00000000       0.00000000       1.64949495       0.00000000       0.00000000       4.49387407
2
Properties=species:S:1:pos:R:3:forces:R:3 energy=0.19898950727220166 pbc="F F F"
Li       0.00000000       0.00000000       0.00000000       0.00000000       0.00000000      -4.18155193
Li       0.00000000       0.00000000       1.70909091       0.00000000       0.00000000       4.18155193
2
Properties=species:S:1:pos:R:3:forces:R:3 energy=-0.04173443520810299 pbc="F F F"
Li       0.00000000       0.00000000       0.00000000       0.00000000       0.00000000      -3.95469308
Li       0.00000000       0.00000000       1.76868687       0.00000000       0.00000000       3.95469308
2
Properties=species:S:1:pos:R:3:forces:R:3 energy=-0.2807663030972838 pbc="F F F"
Li       0.00000000       0.00000000       0.00000000       0.00000000       0.00000000      -4.05555773
Li       0.00000000       0.00000000       1.82828283       0.00000000       0.00000000       4.05555773
2
Properties=species:S:1:pos:R:3:forces:R:3 energy=-0.5156086721146363 pbc="F F F"
Li       0.00000000       0.00000000       0.00000000       0.00000000       0.00000000      -3.80253768
Li       0.00000000       0.00000000       1.88787879       0.00000000       0.00000000       3.80253768
2
Properties=species:S:1:pos:R:3:forces:R:3 energy=-0.7336565864818249 pbc="F F F"
Li       0.00000000       0.00000000       0.00000000       0.00000000       0.00000000      -3.49329448
Li       0.00000000       0.00000000       1.94747475       0.00000000       0.00000000       3.49329448
2
Properties=species:S:1:pos:R:3:forces:R:3 energy=-0.9308323899115041 pbc="F F F"
Li       0.00000000       0.00000000       0.00000000       0.00000000       0.00000000      -3.10082507
Li       0.00000000       0.00000000       2.00707071       0.00000000       0.00000000       3.10082507
2
Properties=species:S:1:pos:R:3:forces:R:3 energy=-1.099527027143475 pbc="F F F"
Li       0.00000000       0.00000000       0.00000000       0.00000000       0.00000000      -2.55684543
Li       0.00000000       0.00000000       2.06666667       0.00000000       0.00000000       2.55684543
2
Properties=species:S:1:pos:R:3:forces:R:3 energy=-1.2381478050485406 pbc="F F F"
Li       0.00000000       0.00000000       0.00000000       0.00000000       0.00000000      -2.11241937
Li       0.00000000       0.00000000       2.12626263       0.00000000       0.00000000       2.11241937
2
Properties=species:S:1:pos:R:3:forces:R:3 energy=-1.3534483108503284 pbc="F F F"
Li       0.00000000       0.00000000       0.00000000       0.00000000       0.00000000      -1.77415717
Li       0.00000000       0.00000000       2.18585859       0.00000000       0.00000000       1.77415717
2
Properties=species:S:1:pos:R:3:forces:R:3 energy=-1.4497696683732837 pbc="F F F"
Li       0.00000000       0.00000000       0.00000000       0.00000000       0.00000000      -1.46174157
Li       0.00000000       0.00000000       2.24545455       0.00000000       0.00000000       1.46174157
2
Properties=species:S:1:pos:R:3:forces:R:3 energy=-1.5298728184565291 pbc="F F F"
Li       0.00000000       0.00000000       0.00000000       0.00000000       0.00000000      -1.24252701
Li       0.00000000       0.00000000       2.30505051       0.00000000       0.00000000       1.24252701
2
Properties=species:S:1:pos:R:3:forces:R:3 energy=-1.598552759215524 pbc="F F F"
Li       0.00000000       0.00000000       0.00000000       0.00000000       0.00000000      -1.06594217
Li       0.00000000       0.00000000       2.36464646       0.00000000       0.00000000       1.06594217
2
Properties=species:S:1:pos:R:3:forces:R:3 energy=-1.657667483741828 pbc="F F F"
Li       0.00000000       0.00000000       0.00000000       0.00000000       0.00000000      -0.92517102
Li       0.00000000       0.00000000       2.42424242       0.00000000       0.00000000       0.92517102
2
Properties=species:S:1:pos:R:3:forces:R:3 energy=-1.7099066363285398 pbc="F F F"
Li       0.00000000       0.00000000       0.00000000       0.00000000       0.00000000      -0.83594781
Li       0.00000000       0.00000000       2.48383838       0.00000000       0.00000000       0.83594781
2
Properties=species:S:1:pos:R:3:forces:R:3 energy=-1.757158555703774 pbc="F F F"
Li       0.00000000       0.00000000       0.00000000       0.00000000       0.00000000      -0.74092180
Li       0.00000000       0.00000000       2.54343434       0.00000000       0.00000000       0.74092180
2
Properties=species:S:1:pos:R:3:forces:R:3 energy=-1.797482437951925 pbc="F F F"
Li       0.00000000       0.00000000       0.00000000       0.00000000       0.00000000      -0.61243170
Li       0.00000000       0.00000000       2.60303030       0.00000000       0.00000000       0.61243170
2
Properties=species:S:1:pos:R:3:forces:R:3 energy=-1.8307125237990756 pbc="F F F"
Li       0.00000000       0.00000000       0.00000000       0.00000000       0.00000000      -0.50904191
Li       0.00000000       0.00000000       2.66262626       0.00000000       0.00000000       0.50904191
2
Properties=species:S:1:pos:R:3:forces:R:3 energy=-1.8586846774276453 pbc="F F F"
Li       0.00000000       0.00000000       0.00000000       0.00000000       0.00000000      -0.43170226
Li       0.00000000       0.00000000       2.72222222       0.00000000       0.00000000       0.43170226
2
Properties=species:S:1:pos:R:3:forces:R:3 energy=-1.8823102197563448 pbc="F F F"
Li       0.00000000       0.00000000       0.00000000       0.00000000       0.00000000      -0.36298358
Li       0.00000000       0.00000000       2.78181818       0.00000000       0.00000000       0.36298358
2
Properties=species:S:1:pos:R:3:forces:R:3 energy=-1.9023236214919899 pbc="F F F"
Li       0.00000000       0.00000000       0.00000000       0.00000000       0.00000000      -0.31261316
Li       0.00000000       0.00000000       2.84141414       0.00000000       0.00000000       0.31261316
2
Properties=species:S:1:pos:R:3:forces:R:3 energy=-1.9200418724248767 pbc="F F F"
Li       0.00000000       0.00000000       0.00000000       0.00000000       0.00000000      -0.28561467
Li       0.00000000       0.00000000       2.90101010       0.00000000       0.00000000       0.28561467
2
Properties=species:S:1:pos:R:3:forces:R:3 energy=-1.9367483134606662 pbc="F F F"
Li       0.00000000       0.00000000       0.00000000       0.00000000       0.00000000      -0.27804619
Li       0.00000000       0.00000000       2.96060606       0.00000000       0.00000000       0.27804619
2
Properties=species:S:1:pos:R:3:forces:R:3 energy=-1.9535945959014838 pbc="F F F"
Li       0.00000000       0.00000000       0.00000000       0.00000000       0.00000000      -0.29161477
Li       0.00000000       0.00000000       3.02020202       0.00000000       0.00000000       0.29161477
2
Properties=species:S:1:pos:R:3:forces:R:3 energy=-1.972158879886343 pbc="F F F"
Li       0.00000000       0.00000000       0.00000000       0.00000000       0.00000000      -0.33783376
Li       0.00000000       0.00000000       3.07979798       0.00000000       0.00000000       0.33783376
2
Properties=species:S:1:pos:R:3:forces:R:3 energy=-1.9945548628470433 pbc="F F F"
Li       0.00000000       0.00000000       0.00000000       0.00000000       0.00000000      -0.41704971
Li       0.00000000       0.00000000       3.13939394       0.00000000       0.00000000       0.41704971
2
Properties=species:S:1:pos:R:3:forces:R:3 energy=-2.021594608022136 pbc="F F F"
Li       0.00000000       0.00000000       0.00000000       0.00000000       0.00000000      -0.48141432
Li       0.00000000       0.00000000       3.19898990       0.00000000       0.00000000       0.48141432
2
Properties=species:S:1:pos:R:3:forces:R:3 energy=-2.0502469663729124 pbc="F F F"
Li       0.00000000       0.00000000       0.00000000       0.00000000       0.00000000      -0.46367568
Li       0.00000000       0.00000000       3.25858586       0.00000000       0.00000000       0.46367568
2
Properties=species:S:1:pos:R:3:forces:R:3 energy=-2.075201103549055 pbc="F F F"
Li       0.00000000       0.00000000       0.00000000       0.00000000       0.00000000      -0.36448449
Li       0.00000000       0.00000000       3.31818182       0.00000000       0.00000000       0.36448449
2
Properties=species:S:1:pos:R:3:forces:R:3 energy=-2.0932137823547357 pbc="F F F"
Li       0.00000000       0.00000000       0.00000000       0.00000000       0.00000000      -0.24043554
Li       0.00000000       0.00000000       3.37777778       0.00000000       0.00000000       0.24043554
2
Properties=species:S:1:pos:R:3:forces:R:3 energy=-2.1042058663642784 pbc="F F F"
Li       0.00000000       0.00000000       0.00000000       0.00000000       0.00000000      -0.13270393
Li       0.00000000       0.00000000       3.43737374       0.00000000       0.00000000       0.13270393
2
Properties=species:S:1:pos:R:3:forces:R:3 energy=-2.1095575676880656 pbc="F F F"
Li       0.00000000       0.00000000       0.00000000       0.00000000       0.00000000      -0.05102379
Li       0.00000000       0.00000000       3.49696970       0.00000000       0.00000000       0.05102379
2
Properties=species:S:1:pos:R:3:forces:R:3 energy=-2.110715184517694 pbc="F F F"
Li       0.00000000       0.00000000       0.00000000       0.00000000       0.00000000       0.00914727
Li       0.00000000       0.00000000       3.55656566       0.00000000       0.00000000      -0.00914727
2
Properties=species:S:1:pos:R:3:forces:R:3 energy=-2.1087659658870184 pbc="F F F"
Li       0.00000000       0.00000000       0.00000000       0.00000000       0.00000000       0.05416335
Li       0.00000000       0.00000000       3.61616162       0.00000000       0.00000000      -0.05416335
2
Properties=species:S:1:pos:R:3:forces:R:3 energy=-2.1044704326710053 pbc="F F F"
Li       0.00000000       0.00000000       0.00000000       0.00000000       0.00000000       0.08850487
Li       0.00000000       0.00000000       3.67575758       0.00000000       0.00000000      -0.08850487
2
Properties=species:S:1:pos:R:3:forces:R:3 energy=-2.0983762591281128 pbc="F F F"
Li       0.00000000       0.00000000       0.00000000       0.00000000       0.00000000       0.11482919
Li       0.00000000       0.00000000       3.73535354       0.00000000       0.00000000      -0.11482919
2
Properties=species:S:1:pos:R:3:forces:R:3 energy=-2.090910799354326 pbc="F F F"
Li       0.00000000       0.00000000       0.00000000       0.00000000       0.00000000       0.13473107
Li       0.00000000       0.00000000       3.79494949       0.00000000       0.00000000      -0.13473107
2
Properties=species:S:1:pos:R:3:forces:R:3 energy=-2.0824239190575455 pbc="F F F"
Li       0.00000000       0.00000000       0.00000000       0.00000000       0.00000000       0.14927360
Li       0.00000000       0.00000000       3.85454545       0.00000000       0.00000000      -0.14927360
2
Properties=species:S:1:pos:R:3:forces:R:3 energy=-2.0732097129327705 pbc="F F F"
Li       0.00000000       0.00000000       0.00000000       0.00000000       0.00000000       0.15923506
Li       0.00000000       0.00000000       3.91414141       0.00000000       0.00000000      -0.15923506
2
Properties=species:S:1:pos:R:3:forces:R:3 energy=-2.0635232994960284 pbc="F F F"
Li       0.00000000       0.00000000       0.00000000       0.00000000       0.00000000       0.16522619
Li       0.00000000       0.00000000       3.97373737       0.00000000       0.00000000      -0.16522619
2
Properties=species:S:1:pos:R:3:forces:R:3 energy=-2.0535830573124496 pbc="F F F"
Li       0.00000000       0.00000000       0.00000000       0.00000000       0.00000000       0.16781995
Li       0.00000000       0.00000000       4.03333333       0.00000000       0.00000000      -0.16781995
2
Properties=species:S:1:pos:R:3:forces:R:3 energy=-2.043573746165668 pbc="F F F"
Li       0.00000000       0.00000000       0.00000000       0.00000000       0.00000000       0.16766417
Li       0.00000000       0.00000000       4.09292929       0.00000000       0.00000000      -0.16766417
2
Properties=species:S:1:pos:R:3:forces:R:3 energy=-2.033640063453212 pbc="F F F"
Li       0.00000000       0.00000000       0.00000000       0.00000000       0.00000000       0.16549473
Li       0.00000000       0.00000000       4.15252525       0.00000000       0.00000000      -0.16549473
2
Properties=species:S:1:pos:R:3:forces:R:3 energy=-2.0238753755092107 pbc="F F F"
Li       0.00000000       0.00000000       0.00000000       0.00000000       0.00000000       0.16202532
Li       0.00000000       0.00000000       4.21212121       0.00000000       0.00000000      -0.16202532
2
Properties=species:S:1:pos:R:3:forces:R:3 energy=-2.0143423449874107 pbc="F F F"
Li       0.00000000       0.00000000       0.00000000       0.00000000       0.00000000       0.15782246
Li       0.00000000       0.00000000       4.27171717       0.00000000       0.00000000      -0.15782246
2
Properties=species:S:1:pos:R:3:forces:R:3 energy=-2.0050704086353472 pbc="F F F"
Li       0.00000000       0.00000000       0.00000000       0.00000000       0.00000000       0.15325996
Li       0.00000000       0.00000000       4.33131313       0.00000000       0.00000000      -0.15325996
2
Properties=species:S:1:pos:R:3:forces:R:3 energy=-1.9960768341570356 pbc="F F F"
Li       0.00000000       0.00000000       0.00000000       0.00000000       0.00000000       0.14855319
Li       0.00000000       0.00000000       4.39090909       0.00000000       0.00000000      -0.14855319
2
Properties=species:S:1:pos:R:3:forces:R:3 energy=-1.987364201314816 pbc="F F F"
Li       0.00000000       0.00000000       0.00000000       0.00000000       0.00000000       0.14382133
Li       0.00000000       0.00000000       4.45050505       0.00000000       0.00000000      -0.14382133
2
Properties=species:S:1:pos:R:3:forces:R:3 energy=-1.9789338927539557 pbc="F F F"
Li       0.00000000       0.00000000       0.00000000       0.00000000       0.00000000       0.13912255
Li       0.00000000       0.00000000       4.51010101       0.00000000       0.00000000      -0.13912255
2
Properties=species:S:1:pos:R:3:forces:R:3 energy=-1.9707821145786322 pbc="F F F"
Li       0.00000000       0.00000000       0.00000000       0.00000000       0.00000000       0.13447177
Li       0.00000000       0.00000000       4.56969697       0.00000000       0.00000000      -0.13447177
2
Properties=species:S:1:pos:R:3:forces:R:3 energy=-1.9629056674191507 pbc="F F F"
Li       0.00000000       0.00000000       0.00000000       0.00000000       0.00000000       0.12985061
Li       0.00000000       0.00000000       4.62929293       0.00000000       0.00000000      -0.12985061
2
Properties=species:S:1:pos:R:3:forces:R:3 energy=-1.9553041278771173 pbc="F F F"
Li       0.00000000       0.00000000       0.00000000       0.00000000       0.00000000       0.12523261
Li       0.00000000       0.00000000       4.68888889       0.00000000       0.00000000      -0.12523261
2
Properties=species:S:1:pos:R:3:forces:R:3 energy=-1.9479788298308436 pbc="F F F"
Li       0.00000000       0.00000000       0.00000000       0.00000000       0.00000000       0.12060890
Li       0.00000000       0.00000000       4.74848485       0.00000000       0.00000000      -0.12060890
2
Properties=species:S:1:pos:R:3:forces:R:3 energy=-1.9409283448177275 pbc="F F F"
Li       0.00000000       0.00000000       0.00000000       0.00000000       0.00000000       0.11600900
Li       0.00000000       0.00000000       4.80808081       0.00000000       0.00000000      -0.11600900
2
Properties=species:S:1:pos:R:3:forces:R:3 energy=-1.9341496874705073 pbc="F F F"
Li       0.00000000       0.00000000       0.00000000       0.00000000       0.00000000       0.11150388
Li       0.00000000       0.00000000       4.86767677       0.00000000       0.00000000      -0.11150388
2
Properties=species:S:1:pos:R:3:forces:R:3 energy=-1.9276344184566179 pbc="F F F"
Li       0.00000000       0.00000000       0.00000000       0.00000000       0.00000000       0.10717461
Li       0.00000000       0.00000000       4.92727273       0.00000000       0.00000000      -0.10717461
2
Properties=species:S:1:pos:R:3:forces:R:3 energy=-1.921370862273396 pbc="F F F"
Li       0.00000000       0.00000000       0.00000000       0.00000000       0.00000000       0.10307258
Li       0.00000000       0.00000000       4.98686869       0.00000000       0.00000000      -0.10307258
2
Properties=species:S:1:pos:R:3:forces:R:3 energy=-1.9153453745367883 pbc="F F F"
Li       0.00000000       0.00000000       0.00000000       0.00000000       0.00000000       0.09917447
Li       0.00000000       0.00000000       5.04646465       0.00000000       0.00000000      -0.09917447
2
Properties=species:S:1:pos:R:3:forces:R:3 energy=-1.9095481052089374 pbc="F F F"
Li       0.00000000       0.00000000       0.00000000       0.00000000       0.00000000       0.09536190
Li       0.00000000       0.00000000       5.10606061       0.00000000       0.00000000      -0.09536190
2
Properties=species:S:1:pos:R:3:forces:R:3 energy=-1.9039806136575899 pbc="F F F"
Li       0.00000000       0.00000000       0.00000000       0.00000000       0.00000000       0.09142643
Li       0.00000000       0.00000000       5.16565657       0.00000000       0.00000000      -0.09142643
2
Properties=species:S:1:pos:R:3:forces:R:3 energy=-1.8986583542121944 pbc="F F F"
Li       0.00000000       0.00000000       0.00000000       0.00000000       0.00000000       0.08711590
Li       0.00000000       0.00000000       5.22525253       0.00000000       0.00000000      -0.08711590
2
Properties=species:S:1:pos:R:3:forces:R:3 energy=-1.8936103165361644 pbc="F F F"
Li       0.00000000       0.00000000       0.00000000       0.00000000       0.00000000       0.08219014
Li       0.00000000       0.00000000       5.28484848       0.00000000       0.00000000      -0.08219014
2
Properties=species:S:1:pos:R:3:forces:R:3 energy=-1.8888769677267674 pbc="F F F"
Li       0.00000000       0.00000000       0.00000000       0.00000000       0.00000000       0.07649505
Li       0.00000000       0.00000000       5.34444444       0.00000000       0.00000000      -0.07649505
2
Properties=species:S:1:pos:R:3:forces:R:3 energy=-1.8845078617936897 pbc="F F F"
Li       0.00000000       0.00000000       0.00000000       0.00000000       0.00000000       0.07000312
Li       0.00000000       0.00000000       5.40404040       0.00000000       0.00000000      -0.07000312
2
Properties=species:S:1:pos:R:3:forces:R:3 energy=-1.880545696460541 pbc="F F F"
Li       0.00000000       0.00000000       0.00000000       0.00000000       0.00000000       0.06284893
Li       0.00000000       0.00000000       5.46363636       0.00000000       0.00000000      -0.06284893
2
Properties=species:S:1:pos:R:3:forces:R:3 energy=-1.8770248668142677 pbc="F F F"
Li       0.00000000       0.00000000       0.00000000       0.00000000       0.00000000       0.05530979
Li       0.00000000       0.00000000       5.52323232       0.00000000       0.00000000      -0.05530979
2
Properties=species:S:1:pos:R:3:forces:R:3 energy=-1.873954524082831 pbc="F F F"
Li       0.00000000       0.00000000       0.00000000       0.00000000       0.00000000       0.04776160
Li       0.00000000       0.00000000       5.58282828       0.00000000       0.00000000      -0.04776160
2
Properties=species:S:1:pos:R:3:forces:R:3 energy=-1.8713242026464412 pbc="F F F"
Li       0.00000000       0.00000000       0.00000000       0.00000000       0.00000000       0.04062764
Li       0.00000000       0.00000000       5.64242424       0.00000000       0.00000000      -0.04062764
2
Properties=species:S:1:pos:R:3:forces:R:3 energy=-1.869095935553417 pbc="F F F"
Li       0.00000000       0.00000000       0.00000000       0.00000000       0.00000000       0.03428721
Li       0.00000000       0.00000000       5.70202020       0.00000000       0.00000000      -0.03428721
2
Properties=species:S:1:pos:R:3:forces:R:3 energy=-1.8672147338502905 pbc="F F F"
Li       0.00000000       0.00000000       0.00000000       0.00000000       0.00000000       0.02903258
Li       0.00000000       0.00000000       5.76161616       0.00000000       0.00000000      -0.02903258
2
Properties=species:S:1:pos:R:3:forces:R:3 energy=-1.8656114301817328 pbc="F F F"
Li       0.00000000       0.00000000       0.00000000       0.00000000       0.00000000       0.02499381
Li       0.00000000       0.00000000       5.82121212       0.00000000       0.00000000      -0.02499381
2
Properties=species:S:1:pos:R:3:forces:R:3 energy=-1.864213294337011 pbc="F F F"
Li       0.00000000       0.00000000       0.00000000       0.00000000       0.00000000       0.02213155
Li       0.00000000       0.00000000       5.88080808       0.00000000       0.00000000      -0.02213155
2
Properties=species:S:1:pos:R:3:forces:R:3 energy=-1.862954927644716 pbc="F F F"
Li       0.00000000       0.00000000       0.00000000       0.00000000       0.00000000       0.02021624
Li       0.00000000       0.00000000       5.94040404       0.00000000       0.00000000      -0.02021624
2
Properties=species:S:1:pos:R:3:forces:R:3 energy=-1.8617917157835018 pbc="F F F"
Li       0.00000000       0.00000000       0.00000000       0.00000000       0.00000000       0.01887134
Li       0.00000000       0.00000000       6.00000000       0.00000000       0.00000000      -0.01887134
