2
Properties=species:S:1:pos:R:3:forces:R:3 energy=25259911.96640349 pbc="F F F"
Mn       0.00000000       0.00000000       0.00000000       0.00000000       0.00000000 -134051720.00000000
Mn       0.00000000       0.00000000       0.10000000       0.00000000       0.00000000 134051720.00000000
2
Properties=species:S:1:pos:R:3:forces:R:3 energy=16708138.966403492 pbc="F F F"
Mn       0.00000000       0.00000000       0.00000000       0.00000000       0.00000000 -143743760.00000000
Mn       0.00000000       0.00000000       0.15959596       0.00000000       0.00000000 143743760.00000000
2
Properties=species:S:1:pos:R:3:forces:R:3 energy=8996041.966403492 pbc="F F F"
Mn       0.00000000       0.00000000       0.00000000       0.00000000       0.00000000 -110127856.00000000
Mn       0.00000000       0.00000000       0.21919192       0.00000000       0.00000000 110127856.00000000
2
Properties=species:S:1:pos:R:3:forces:R:3 energy=3858076.2164034913 pbc="F F F"
Mn       0.00000000       0.00000000       0.00000000       0.00000000       0.00000000 -62472360.00000000
Mn       0.00000000       0.00000000       0.27878788       0.00000000       0.00000000 62472360.00000000
2
Properties=species:S:1:pos:R:3:forces:R:3 energy=1316594.591403491 pbc="F F F"
Mn       0.00000000       0.00000000       0.00000000       0.00000000       0.00000000 -25853686.00000000
Mn       0.00000000       0.00000000       0.33838384       0.00000000       0.00000000 25853686.00000000
2
Properties=species:S:1:pos:R:3:forces:R:3 energy=393006.5289034975 pbc="F F F"
Mn       0.00000000       0.00000000       0.00000000       0.00000000       0.00000000 -8186059.00000000
Mn       0.00000000       0.00000000       0.39797980       0.00000000       0.00000000 8186059.00000000
2
Properties=species:S:1:pos:R:3:forces:R:3 energy=112375.74765350381 pbc="F F F"
Mn       0.00000000       0.00000000       0.00000000       0.00000000       0.00000000 -2238724.00000000
Mn       0.00000000       0.00000000       0.45757576       0.00000000       0.00000000 2238724.00000000
2
Properties=species:S:1:pos:R:3:forces:R:3 energy=38280.84140352283 pbc="F F F"
Mn       0.00000000       0.00000000       0.00000000       0.00000000       0.00000000 -629525.37500000
Mn       0.00000000       0.00000000       0.51717172       0.00000000       0.00000000  629525.37500000
2
Properties=species:S:1:pos:R:3:forces:R:3 energy=15280.724216054505 pbc="F F F"
Mn       0.00000000       0.00000000       0.00000000       0.00000000       0.00000000 -225251.76562500
Mn       0.00000000       0.00000000       0.57676768       0.00000000       0.00000000  225251.76562500
2
Properties=species:S:1:pos:R:3:forces:R:3 energy=6231.874606730189 pbc="F F F"
Mn       0.00000000       0.00000000       0.00000000       0.00000000       0.00000000  -88237.92187500
Mn       0.00000000       0.00000000       0.63636364       0.00000000       0.00000000   88237.92187500
2
Properties=species:S:1:pos:R:3:forces:R:3 energy=3193.8892552500524 pbc="F F F"
Mn       0.00000000       0.00000000       0.00000000       0.00000000       0.00000000  -30754.84765625
Mn       0.00000000       0.00000000       0.69595960       0.00000000       0.00000000   30754.84765625
2
Properties=species:S:1:pos:R:3:forces:R:3 energy=1432.2920874016797 pbc="F F F"
Mn       0.00000000       0.00000000       0.00000000       0.00000000       0.00000000  -23295.96093750
Mn       0.00000000       0.00000000       0.75555556       0.00000000       0.00000000   23295.96093750
2
Properties=species:S:1:pos:R:3:forces:R:3 energy=419.9682960878428 pbc="F F F"
Mn       0.00000000       0.00000000       0.00000000       0.00000000       0.00000000   -9658.05761719
Mn       0.00000000       0.00000000       0.81515152       0.00000000       0.00000000    9658.05761719
2
Properties=species:S:1:pos:R:3:forces:R:3 energy=123.95112258685 pbc="F F F"
Mn       0.00000000       0.00000000       0.00000000       0.00000000       0.00000000   -2398.05078125
Mn       0.00000000       0.00000000       0.87474747       0.00000000       0.00000000    2398.05078125
2
Properties=species:S:1:pos:R:3:forces:R:3 energy=32.92433616912509 pbc="F F F"
Mn       0.00000000       0.00000000       0.00000000       0.00000000       0.00000000    -964.05548096
Mn       0.00000000       0.00000000       0.93434343       0.00000000       0.00000000     964.05548096
2
Properties=species:S:1:pos:R:3:forces:R:3 energy=-1.2914092309197551 pbc="F F F"
Mn       0.00000000       0.00000000       0.00000000       0.00000000       0.00000000    -261.45477295
Mn       0.00000000       0.00000000       0.99393939       0.00000000       0.00000000     261.45477295
2
Properties=species:S:1:pos:R:3:forces:R:3 energy=-6.640119525618073 pbc="F F F"
Mn       0.00000000       0.00000000       0.00000000       0.00000000       0.00000000      14.05626011
Mn       0.00000000       0.00000000       1.05353535       0.00000000       0.00000000     -14.05626011
2
Properties=species:S:1:pos:R:3:forces:R:3 energy=-1.2878570224940362 pbc="F F F"
Mn       0.00000000       0.00000000       0.00000000       0.00000000       0.00000000     157.14421082
Mn       0.00000000       0.00000000       1.11313131       0.00000000       0.00000000    -157.14421082
2
Properties=species:S:1:pos:R:3:forces:R:3 energy=4.516533241405965 pbc="F F F"
Mn       0.00000000       0.00000000       0.00000000       0.00000000       0.00000000      15.96587181
Mn       0.00000000       0.00000000       1.17272727       0.00000000       0.00000000     -15.96587181
2
Properties=species:S:1:pos:R:3:forces:R:3 energy=2.8470803109206995 pbc="F F F"
Mn       0.00000000       0.00000000       0.00000000       0.00000000       0.00000000     -57.49746704
Mn       0.00000000       0.00000000       1.23232323       0.00000000       0.00000000      57.49746704
2
Properties=species:S:1:pos:R:3:forces:R:3 energy=-0.8276040111945157 pbc="F F F"
Mn       0.00000000       0.00000000       0.00000000       0.00000000       0.00000000     -65.48999786
Mn       0.00000000       0.00000000       1.29191919       0.00000000       0.00000000      65.48999786
2
Properties=species:S:1:pos:R:3:forces:R:3 energy=-4.516652959329772 pbc="F F F"
Mn       0.00000000       0.00000000       0.00000000       0.00000000       0.00000000     -54.64075089
Mn       0.00000000       0.00000000       1.35151515       0.00000000       0.00000000      54.64075089
2
Properties=species:S:1:pos:R:3:forces:R:3 energy=-7.251153341135365 pbc="F F F"
Mn       0.00000000       0.00000000       0.00000000       0.00000000       0.00000000     -36.72167969
Mn       0.00000000       0.00000000       1.41111111       0.00000000       0.00000000      36.72167969
2
Properties=species:S:1:pos:R:3:forces:R:3 energy=-8.849673240566771 pbc="F F F"
Mn       0.00000000       0.00000000       0.00000000       0.00000000       0.00000000     -17.76498795
Mn       0.00000000       0.00000000       1.47070707       0.00000000       0.00000000      17.76498795
2
Properties=species:S:1:pos:R:3:forces:R:3 energy=-9.52917629258083 pbc="F F F"
Mn       0.00000000       0.00000000       0.00000000       0.00000000       0.00000000      -6.24961853
Mn       0.00000000       0.00000000       1.53030303       0.00000000       0.00000000       6.24961853
2
Properties=species:S:1:pos:R:3:forces:R:3 energy=-9.719802840422371 pbc="F F F"
Mn       0.00000000       0.00000000       0.00000000       0.00000000       0.00000000      -1.07746911
Mn       0.00000000       0.00000000       1.58989899       0.00000000       0.00000000       1.07746911
2
Properties=species:S:1:pos:R:3:forces:R:3 energy=-9.74184716924472 pbc="F F F"
Mn       0.00000000       0.00000000       0.00000000       0.00000000       0.00000000       0.14713478
Mn       0.00000000       0.00000000       1.64949495       0.00000000       0.00000000      -0.14713478
2
Properties=species:S:1:pos:R:3:forces:R:3 energy=-9.738610282844066 pbc="F F F"
Mn       0.00000000       0.00000000       0.00000000       0.00000000       0.00000000      -0.30582649
Mn       0.00000000       0.00000000       1.70909091       0.00000000       0.00000000       0.30582649
2
Properties=species:S:1:pos:R:3:forces:R:3 energy=-9.785626314199796 pbc="F F F"
Mn       0.00000000       0.00000000       0.00000000       0.00000000       0.00000000      -1.25603259
Mn       0.00000000       0.00000000       1.76868687       0.00000000       0.00000000       1.25603259
2
Properties=species:S:1:pos:R:3:forces:R:3 energy=-9.90121133250016 pbc="F F F"
Mn       0.00000000       0.00000000       0.00000000       0.00000000       0.00000000      -2.62973261
Mn       0.00000000       0.00000000       1.82828283       0.00000000       0.00000000       2.62973261
2
Properties=species:S:1:pos:R:3:forces:R:3 energy=-10.069859340806575 pbc="F F F"
Mn       0.00000000       0.00000000       0.00000000       0.00000000       0.00000000      -2.96441913
Mn       0.00000000       0.00000000       1.88787879       0.00000000       0.00000000       2.96441913
2
Properties=species:S:1:pos:R:3:forces:R:3 energy=-10.249732199555972 pbc="F F F"
Mn       0.00000000       0.00000000       0.00000000       0.00000000       0.00000000      -2.98064113
Mn       0.00000000       0.00000000       1.94747475       0.00000000       0.00000000       2.98064113
2
Properties=species:S:1:pos:R:3:forces:R:3 energy=-10.423512626890064 pbc="F F F"
Mn       0.00000000       0.00000000       0.00000000       0.00000000       0.00000000      -2.87106109
Mn       0.00000000       0.00000000       2.00707071       0.00000000       0.00000000       2.87106109
2
Properties=species:S:1:pos:R:3:forces:R:3 energy=-10.588152158252585 pbc="F F F"
Mn       0.00000000       0.00000000       0.00000000       0.00000000       0.00000000      -2.60139799
Mn       0.00000000       0.00000000       2.06666667       0.00000000       0.00000000       2.60139799
2
Properties=species:S:1:pos:R:3:forces:R:3 energy=-10.732715577428149 pbc="F F F"
Mn       0.00000000       0.00000000       0.00000000       0.00000000       0.00000000      -2.26262689
Mn       0.00000000       0.00000000       2.12626263       0.00000000       0.00000000       2.26262689
2
Properties=species:S:1:pos:R:3:forces:R:3 energy=-10.86132774230771 pbc="F F F"
Mn       0.00000000       0.00000000       0.00000000       0.00000000       0.00000000      -2.09296274
Mn       0.00000000       0.00000000       2.18585859       0.00000000       0.00000000       2.09296274
2
Properties=species:S:1:pos:R:3:forces:R:3 energy=-10.981783036639108 pbc="F F F"
Mn       0.00000000       0.00000000       0.00000000       0.00000000       0.00000000      -1.92255032
Mn       0.00000000       0.00000000       2.24545455       0.00000000       0.00000000       1.92255032
2
Properties=species:S:1:pos:R:3:forces:R:3 energy=-11.089815532347332 pbc="F F F"
Mn       0.00000000       0.00000000       0.00000000       0.00000000       0.00000000      -1.70730269
Mn       0.00000000       0.00000000       2.30505051       0.00000000       0.00000000       1.70730269
2
Properties=species:S:1:pos:R:3:forces:R:3 energy=-11.184602178605399 pbc="F F F"
Mn       0.00000000       0.00000000       0.00000000       0.00000000       0.00000000      -1.46081352
Mn       0.00000000       0.00000000       2.36464646       0.00000000       0.00000000       1.46081352
2
Properties=species:S:1:pos:R:3:forces:R:3 energy=-11.263177303718322 pbc="F F F"
Mn       0.00000000       0.00000000       0.00000000       0.00000000       0.00000000      -1.18112457
Mn       0.00000000       0.00000000       2.42424242       0.00000000       0.00000000       1.18112457
2
Properties=species:S:1:pos:R:3:forces:R:3 energy=-11.327297586119101 pbc="F F F"
Mn       0.00000000       0.00000000       0.00000000       0.00000000       0.00000000      -0.99058884
Mn       0.00000000       0.00000000       2.48383838       0.00000000       0.00000000       0.99058884
2
Properties=species:S:1:pos:R:3:forces:R:3 energy=-11.382332741620056 pbc="F F F"
Mn       0.00000000       0.00000000       0.00000000       0.00000000       0.00000000      -0.85434914
Mn       0.00000000       0.00000000       2.54343434       0.00000000       0.00000000       0.85434914
2
Properties=species:S:1:pos:R:3:forces:R:3 energy=-11.428820121825678 pbc="F F F"
Mn       0.00000000       0.00000000       0.00000000       0.00000000       0.00000000      -0.70526564
Mn       0.00000000       0.00000000       2.60303030       0.00000000       0.00000000       0.70526564
2
Properties=species:S:1:pos:R:3:forces:R:3 energy=-11.465957471778294 pbc="F F F"
Mn       0.00000000       0.00000000       0.00000000       0.00000000       0.00000000      -0.53067541
Mn       0.00000000       0.00000000       2.66262626       0.00000000       0.00000000       0.53067541
2
Properties=species:S:1:pos:R:3:forces:R:3 energy=-11.490471443562567 pbc="F F F"
Mn       0.00000000       0.00000000       0.00000000       0.00000000       0.00000000      -0.28252327
Mn       0.00000000       0.00000000       2.72222222       0.00000000       0.00000000       0.28252327
2
Properties=species:S:1:pos:R:3:forces:R:3 energy=-11.499718610841933 pbc="F F F"
Mn       0.00000000       0.00000000       0.00000000       0.00000000       0.00000000      -0.03713603
Mn       0.00000000       0.00000000       2.78181818       0.00000000       0.00000000       0.03713603
2
Properties=species:S:1:pos:R:3:forces:R:3 energy=-11.496331673582173 pbc="F F F"
Mn       0.00000000       0.00000000       0.00000000       0.00000000       0.00000000       0.13908608
Mn       0.00000000       0.00000000       2.84141414       0.00000000       0.00000000      -0.13908608
2
Properties=species:S:1:pos:R:3:forces:R:3 energy=-11.48429595527418 pbc="F F F"
Mn       0.00000000       0.00000000       0.00000000       0.00000000       0.00000000       0.25714156
Mn       0.00000000       0.00000000       2.90101010       0.00000000       0.00000000      -0.25714156
2
Properties=species:S:1:pos:R:3:forces:R:3 energy=-11.466394903529814 pbc="F F F"
Mn       0.00000000       0.00000000       0.00000000       0.00000000       0.00000000       0.33913159
Mn       0.00000000       0.00000000       2.96060606       0.00000000       0.00000000      -0.33913159
2
Properties=species:S:1:pos:R:3:forces:R:3 energy=-11.444286530689707 pbc="F F F"
Mn       0.00000000       0.00000000       0.00000000       0.00000000       0.00000000       0.40004972
Mn       0.00000000       0.00000000       3.02020202       0.00000000       0.00000000      -0.40004972
2
Properties=species:S:1:pos:R:3:forces:R:3 energy=-11.419011621325488 pbc="F F F"
Mn       0.00000000       0.00000000       0.00000000       0.00000000       0.00000000       0.44568861
Mn       0.00000000       0.00000000       3.07979798       0.00000000       0.00000000      -0.44568861
2
Properties=species:S:1:pos:R:3:forces:R:3 energy=-11.391452455891214 pbc="F F F"
Mn       0.00000000       0.00000000       0.00000000       0.00000000       0.00000000       0.47698769
Mn       0.00000000       0.00000000       3.13939394       0.00000000       0.00000000      -0.47698769
2
Properties=species:S:1:pos:R:3:forces:R:3 energy=-11.362364440569916 pbc="F F F"
Mn       0.00000000       0.00000000       0.00000000       0.00000000       0.00000000       0.49795276
Mn       0.00000000       0.00000000       3.19898990       0.00000000       0.00000000      -0.49795276
2
Properties=species:S:1:pos:R:3:forces:R:3 energy=-11.33221202076963 pbc="F F F"
Mn       0.00000000       0.00000000       0.00000000       0.00000000       0.00000000       0.51309603
Mn       0.00000000       0.00000000       3.25858586       0.00000000       0.00000000      -0.51309603
2
Properties=species:S:1:pos:R:3:forces:R:3 energy=-11.301315140208082 pbc="F F F"
Mn       0.00000000       0.00000000       0.00000000       0.00000000       0.00000000       0.52267259
Mn       0.00000000       0.00000000       3.31818182       0.00000000       0.00000000      -0.52267259
2
Properties=species:S:1:pos:R:3:forces:R:3 energy=-11.270063148743867 pbc="F F F"
Mn       0.00000000       0.00000000       0.00000000       0.00000000       0.00000000       0.52481753
Mn       0.00000000       0.00000000       3.37777778       0.00000000       0.00000000      -0.52481753
2
Properties=species:S:1:pos:R:3:forces:R:3 energy=-11.238919719475817 pbc="F F F"
Mn       0.00000000       0.00000000       0.00000000       0.00000000       0.00000000       0.51911259
Mn       0.00000000       0.00000000       3.43737374       0.00000000       0.00000000      -0.51911259
2
Properties=species:S:1:pos:R:3:forces:R:3 energy=-11.208312513961928 pbc="F F F"
Mn       0.00000000       0.00000000       0.00000000       0.00000000       0.00000000       0.50724566
Mn       0.00000000       0.00000000       3.49696970       0.00000000       0.00000000      -0.50724566
2
Properties=species:S:1:pos:R:3:forces:R:3 energy=-11.178538030199643 pbc="F F F"
Mn       0.00000000       0.00000000       0.00000000       0.00000000       0.00000000       0.49144819
Mn       0.00000000       0.00000000       3.55656566       0.00000000       0.00000000      -0.49144819
2
Properties=species:S:1:pos:R:3:forces:R:3 energy=-11.149787617929436 pbc="F F F"
Mn       0.00000000       0.00000000       0.00000000       0.00000000       0.00000000       0.47295290
Mn       0.00000000       0.00000000       3.61616162       0.00000000       0.00000000      -0.47295290
2
Properties=species:S:1:pos:R:3:forces:R:3 energy=-11.122216136849962 pbc="F F F"
Mn       0.00000000       0.00000000       0.00000000       0.00000000       0.00000000       0.45189083
Mn       0.00000000       0.00000000       3.67575758       0.00000000       0.00000000      -0.45189083
2
Properties=species:S:1:pos:R:3:forces:R:3 energy=-11.095979358992658 pbc="F F F"
Mn       0.00000000       0.00000000       0.00000000       0.00000000       0.00000000       0.42818627
Mn       0.00000000       0.00000000       3.73535354       0.00000000       0.00000000      -0.42818627
2
Properties=species:S:1:pos:R:3:forces:R:3 energy=-11.071222600657665 pbc="F F F"
Mn       0.00000000       0.00000000       0.00000000       0.00000000       0.00000000       0.40229115
Mn       0.00000000       0.00000000       3.79494949       0.00000000       0.00000000      -0.40229115
2
Properties=species:S:1:pos:R:3:forces:R:3 energy=-11.048052124855642 pbc="F F F"
Mn       0.00000000       0.00000000       0.00000000       0.00000000       0.00000000       0.37524328
Mn       0.00000000       0.00000000       3.85454545       0.00000000       0.00000000      -0.37524328
2
Properties=species:S:1:pos:R:3:forces:R:3 energy=-11.026495226370644 pbc="F F F"
Mn       0.00000000       0.00000000       0.00000000       0.00000000       0.00000000       0.34825477
Mn       0.00000000       0.00000000       3.91414141       0.00000000       0.00000000      -0.34825477
2
Properties=species:S:1:pos:R:3:forces:R:3 energy=-11.00652306925855 pbc="F F F"
Mn       0.00000000       0.00000000       0.00000000       0.00000000       0.00000000       0.32226467
Mn       0.00000000       0.00000000       3.97373737       0.00000000       0.00000000      -0.32226467
2
Properties=species:S:1:pos:R:3:forces:R:3 energy=-10.988054552229505 pbc="F F F"
Mn       0.00000000       0.00000000       0.00000000       0.00000000       0.00000000       0.29776871
Mn       0.00000000       0.00000000       4.03333333       0.00000000       0.00000000      -0.29776871
2
Properties=species:S:1:pos:R:3:forces:R:3 energy=-10.970998168947515 pbc="F F F"
Mn       0.00000000       0.00000000       0.00000000       0.00000000       0.00000000       0.27491990
Mn       0.00000000       0.00000000       4.09292929       0.00000000       0.00000000      -0.27491990
2
Properties=species:S:1:pos:R:3:forces:R:3 energy=-10.955252930026553 pbc="F F F"
Mn       0.00000000       0.00000000       0.00000000       0.00000000       0.00000000       0.25370941
Mn       0.00000000       0.00000000       4.15252525       0.00000000       0.00000000      -0.25370941
2
Properties=species:S:1:pos:R:3:forces:R:3 energy=-10.940727322475283 pbc="F F F"
Mn       0.00000000       0.00000000       0.00000000       0.00000000       0.00000000       0.23406799
Mn       0.00000000       0.00000000       4.21212121       0.00000000       0.00000000      -0.23406799
2
Properties=species:S:1:pos:R:3:forces:R:3 energy=-10.927325749180367 pbc="F F F"
Mn       0.00000000       0.00000000       0.00000000       0.00000000       0.00000000       0.21589492
Mn       0.00000000       0.00000000       4.27171717       0.00000000       0.00000000      -0.21589492
2
Properties=species:S:1:pos:R:3:forces:R:3 energy=-10.914967577050229 pbc="F F F"
Mn       0.00000000       0.00000000       0.00000000       0.00000000       0.00000000       0.19908008
Mn       0.00000000       0.00000000       4.33131313       0.00000000       0.00000000      -0.19908008
2
Properties=species:S:1:pos:R:3:forces:R:3 energy=-10.903572496111144 pbc="F F F"
Mn       0.00000000       0.00000000       0.00000000       0.00000000       0.00000000       0.18353091
Mn       0.00000000       0.00000000       4.39090909       0.00000000       0.00000000      -0.18353091
2
Properties=species:S:1:pos:R:3:forces:R:3 energy=-10.893067074850222 pbc="F F F"
Mn       0.00000000       0.00000000       0.00000000       0.00000000       0.00000000       0.16919595
Mn       0.00000000       0.00000000       4.45050505       0.00000000       0.00000000      -0.16919595
2
Properties=species:S:1:pos:R:3:forces:R:3 energy=-10.883380761784457 pbc="F F F"
Mn       0.00000000       0.00000000       0.00000000       0.00000000       0.00000000       0.15606099
Mn       0.00000000       0.00000000       4.51010101       0.00000000       0.00000000      -0.15606099
2
Properties=species:S:1:pos:R:3:forces:R:3 energy=-10.874442682312981 pbc="F F F"
Mn       0.00000000       0.00000000       0.00000000       0.00000000       0.00000000       0.14412627
Mn       0.00000000       0.00000000       4.56969697       0.00000000       0.00000000      -0.14412627
2
Properties=species:S:1:pos:R:3:forces:R:3 energy=-10.866178834714919 pbc="F F F"
Mn       0.00000000       0.00000000       0.00000000       0.00000000       0.00000000       0.13338116
Mn       0.00000000       0.00000000       4.62929293       0.00000000       0.00000000      -0.13338116
2
Properties=species:S:1:pos:R:3:forces:R:3 energy=-10.858522175085628 pbc="F F F"
Mn       0.00000000       0.00000000       0.00000000       0.00000000       0.00000000       0.12379056
Mn       0.00000000       0.00000000       4.68888889       0.00000000       0.00000000      -0.12379056
2
Properties=species:S:1:pos:R:3:forces:R:3 energy=-10.851403128110876 pbc="F F F"
Mn       0.00000000       0.00000000       0.00000000       0.00000000       0.00000000       0.11529525
Mn       0.00000000       0.00000000       4.74848485       0.00000000       0.00000000      -0.11529525
2
Properties=species:S:1:pos:R:3:forces:R:3 energy=-10.844759754366448 pbc="F F F"
Mn       0.00000000       0.00000000       0.00000000       0.00000000       0.00000000       0.10782538
Mn       0.00000000       0.00000000       4.80808081       0.00000000       0.00000000      -0.10782538
2
Properties=species:S:1:pos:R:3:forces:R:3 energy=-10.838532215173768 pbc="F F F"
Mn       0.00000000       0.00000000       0.00000000       0.00000000       0.00000000       0.10131142
Mn       0.00000000       0.00000000       4.86767677       0.00000000       0.00000000      -0.10131142
2
Properties=species:S:1:pos:R:3:forces:R:3 energy=-10.83266538336489 pbc="F F F"
Mn       0.00000000       0.00000000       0.00000000       0.00000000       0.00000000       0.09568430
Mn       0.00000000       0.00000000       4.92727273       0.00000000       0.00000000      -0.09568430
2
Properties=species:S:1:pos:R:3:forces:R:3 energy=-10.827110801316294 pbc="F F F"
Mn       0.00000000       0.00000000       0.00000000       0.00000000       0.00000000       0.09085744
Mn       0.00000000       0.00000000       4.98686869       0.00000000       0.00000000      -0.09085744
2
Properties=species:S:1:pos:R:3:forces:R:3 energy=-10.821822920104585 pbc="F F F"
Mn       0.00000000       0.00000000       0.00000000       0.00000000       0.00000000       0.08670326
Mn       0.00000000       0.00000000       5.04646465       0.00000000       0.00000000      -0.08670326
2
Properties=species:S:1:pos:R:3:forces:R:3 energy=-10.816767571701577 pbc="F F F"
Mn       0.00000000       0.00000000       0.00000000       0.00000000       0.00000000       0.08302443
Mn       0.00000000       0.00000000       5.10606061       0.00000000       0.00000000      -0.08302443
2
Properties=species:S:1:pos:R:3:forces:R:3 energy=-10.811923138060505 pbc="F F F"
Mn       0.00000000       0.00000000       0.00000000       0.00000000       0.00000000       0.07954926
Mn       0.00000000       0.00000000       5.16565657       0.00000000       0.00000000      -0.07954926
2
Properties=species:S:1:pos:R:3:forces:R:3 energy=-10.807288171007098 pbc="F F F"
Mn       0.00000000       0.00000000       0.00000000       0.00000000       0.00000000       0.07595338
Mn       0.00000000       0.00000000       5.22525253       0.00000000       0.00000000      -0.07595338
2
Properties=species:S:1:pos:R:3:forces:R:3 energy=-10.802879513401344 pbc="F F F"
Mn       0.00000000       0.00000000       0.00000000       0.00000000       0.00000000       0.07190897
Mn       0.00000000       0.00000000       5.28484848       0.00000000       0.00000000      -0.07190897
2
Properties=species:S:1:pos:R:3:forces:R:3 energy=-10.798731503854277 pbc="F F F"
Mn       0.00000000       0.00000000       0.00000000       0.00000000       0.00000000       0.06715146
Mn       0.00000000       0.00000000       5.34444444       0.00000000       0.00000000      -0.06715146
2
Properties=species:S:1:pos:R:3:forces:R:3 energy=-10.794891271712842 pbc="F F F"
Mn       0.00000000       0.00000000       0.00000000       0.00000000       0.00000000       0.06154771
Mn       0.00000000       0.00000000       5.40404040       0.00000000       0.00000000      -0.06154771
2
Properties=species:S:1:pos:R:3:forces:R:3 energy=-10.791410184085354 pbc="F F F"
Mn       0.00000000       0.00000000       0.00000000       0.00000000       0.00000000       0.05513987
Mn       0.00000000       0.00000000       5.46363636       0.00000000       0.00000000      -0.05513987
2
Properties=species:S:1:pos:R:3:forces:R:3 energy=-10.788331585875655 pbc="F F F"
Mn       0.00000000       0.00000000       0.00000000       0.00000000       0.00000000       0.04815409
Mn       0.00000000       0.00000000       5.52323232       0.00000000       0.00000000      -0.04815409
2
Properties=species:S:1:pos:R:3:forces:R:3 energy=-10.785676567528267 pbc="F F F"
Mn       0.00000000       0.00000000       0.00000000       0.00000000       0.00000000       0.04096168
Mn       0.00000000       0.00000000       5.58282828       0.00000000       0.00000000      -0.04096168
2
Properties=species:S:1:pos:R:3:forces:R:3 energy=-10.783444920286628 pbc="F F F"
Mn       0.00000000       0.00000000       0.00000000       0.00000000       0.00000000       0.03402560
Mn       0.00000000       0.00000000       5.64242424       0.00000000       0.00000000      -0.03402560
2
Properties=species:S:1:pos:R:3:forces:R:3 energy=-10.781605745169745 pbc="F F F"
Mn       0.00000000       0.00000000       0.00000000       0.00000000       0.00000000       0.02779923
Mn       0.00000000       0.00000000       5.70202020       0.00000000       0.00000000      -0.02779923
2
Properties=species:S:1:pos:R:3:forces:R:3 energy=-10.780108917654834 pbc="F F F"
Mn       0.00000000       0.00000000       0.00000000       0.00000000       0.00000000       0.02265332
Mn       0.00000000       0.00000000       5.76161616       0.00000000       0.00000000      -0.02265332
2
Properties=species:S:1:pos:R:3:forces:R:3 energy=-10.778881291986984 pbc="F F F"
Mn       0.00000000       0.00000000       0.00000000       0.00000000       0.00000000       0.01878569
Mn       0.00000000       0.00000000       5.82121212       0.00000000       0.00000000      -0.01878569
2
Properties=species:S:1:pos:R:3:forces:R:3 energy=-10.777843970271077 pbc="F F F"
Mn       0.00000000       0.00000000       0.00000000       0.00000000       0.00000000       0.01619349
Mn       0.00000000       0.00000000       5.88080808       0.00000000       0.00000000      -0.01619349
2
Properties=species:S:1:pos:R:3:forces:R:3 energy=-10.776930401692955 pbc="F F F"
Mn       0.00000000       0.00000000       0.00000000       0.00000000       0.00000000       0.01463800
Mn       0.00000000       0.00000000       5.94040404       0.00000000       0.00000000      -0.01463800
2
Properties=species:S:1:pos:R:3:forces:R:3 energy=-10.776087405885818 pbc="F F F"
Mn       0.00000000       0.00000000       0.00000000       0.00000000       0.00000000       0.01369574
Mn       0.00000000       0.00000000       6.00000000       0.00000000       0.00000000      -0.01369574
