2
Properties=species:S:1:pos:R:3:forces:R:3 energy=-338.4489915673984 pbc="F F F"
N        0.00000000       0.00000000       0.00000000       0.00000000       0.00000000    3658.54199219
N        0.00000000       0.00000000       0.10000000       0.00000000       0.00000000   -3658.54199219
2
Properties=species:S:1:pos:R:3:forces:R:3 energy=-114.9287431543125 pbc="F F F"
N        0.00000000       0.00000000       0.00000000       0.00000000       0.00000000    3563.02099609
N        0.00000000       0.00000000       0.15959596       0.00000000       0.00000000   -3563.02099609
2
Properties=species:S:1:pos:R:3:forces:R:3 energy=60.70393964598046 pbc="F F F"
N        0.00000000       0.00000000       0.00000000       0.00000000       0.00000000    2199.54077148
N        0.00000000       0.00000000       0.21919192       0.00000000       0.00000000   -2199.54077148
2
Properties=species:S:1:pos:R:3:forces:R:3 energy=104.34377881992766 pbc="F F F"
N        0.00000000       0.00000000       0.00000000       0.00000000       0.00000000     227.37055969
N        0.00000000       0.00000000       0.27878788       0.00000000       0.00000000    -227.37055969
2
Properties=species:S:1:pos:R:3:forces:R:3 energy=94.80067274716174 pbc="F F F"
N        0.00000000       0.00000000       0.00000000       0.00000000       0.00000000    -272.21191406
N        0.00000000       0.00000000       0.33838384       0.00000000       0.00000000     272.21191406
2
Properties=species:S:1:pos:R:3:forces:R:3 energy=101.88500045758694 pbc="F F F"
N        0.00000000       0.00000000       0.00000000       0.00000000       0.00000000    -140.57063293
N        0.00000000       0.00000000       0.39797980       0.00000000       0.00000000     140.57063293
2
Properties=species:S:1:pos:R:3:forces:R:3 energy=94.5973570526882 pbc="F F F"
N        0.00000000       0.00000000       0.00000000       0.00000000       0.00000000    -258.02563477
N        0.00000000       0.00000000       0.45757576       0.00000000       0.00000000     258.02563477
2
Properties=species:S:1:pos:R:3:forces:R:3 energy=72.29449303104218 pbc="F F F"
N        0.00000000       0.00000000       0.00000000       0.00000000       0.00000000    -420.10302734
N        0.00000000       0.00000000       0.51717172       0.00000000       0.00000000     420.10302734
2
Properties=species:S:1:pos:R:3:forces:R:3 energy=50.4724640107234 pbc="F F F"
N        0.00000000       0.00000000       0.00000000       0.00000000       0.00000000    -196.59848022
N        0.00000000       0.00000000       0.57676768       0.00000000       0.00000000     196.59848022
2
Properties=species:S:1:pos:R:3:forces:R:3 energy=37.55092867558724 pbc="F F F"
N        0.00000000       0.00000000       0.00000000       0.00000000       0.00000000    -259.36352539
N        0.00000000       0.00000000       0.63636364       0.00000000       0.00000000     259.36352539
2
Properties=species:S:1:pos:R:3:forces:R:3 energy=18.291968205136058 pbc="F F F"
N        0.00000000       0.00000000       0.00000000       0.00000000       0.00000000    -276.73400879
N        0.00000000       0.00000000       0.69595960       0.00000000       0.00000000     276.73400879
2
Properties=species:S:1:pos:R:3:forces:R:3 energy=6.003927478387142 pbc="F F F"
N        0.00000000       0.00000000       0.00000000       0.00000000       0.00000000    -165.83584595
N        0.00000000       0.00000000       0.75555556       0.00000000       0.00000000     165.83584595
2
Properties=species:S:1:pos:R:3:forces:R:3 energy=-2.5334969831001355 pbc="F F F"
N        0.00000000       0.00000000       0.00000000       0.00000000       0.00000000    -121.42811584
N        0.00000000       0.00000000       0.81515152       0.00000000       0.00000000     121.42811584
2
Properties=species:S:1:pos:R:3:forces:R:3 energy=-8.538680318795162 pbc="F F F"
N        0.00000000       0.00000000       0.00000000       0.00000000       0.00000000     -83.34560394
N        0.00000000       0.00000000       0.87474747       0.00000000       0.00000000      83.34560394
2
Properties=species:S:1:pos:R:3:forces:R:3 energy=-12.532281889091092 pbc="F F F"
N        0.00000000       0.00000000       0.00000000       0.00000000       0.00000000     -51.29949951
N        0.00000000       0.00000000       0.93434343       0.00000000       0.00000000      51.29949951
2
Properties=species:S:1:pos:R:3:forces:R:3 energy=-14.845556546180374 pbc="F F F"
N        0.00000000       0.00000000       0.00000000       0.00000000       0.00000000     -27.34644508
N        0.00000000       0.00000000       0.99393939       0.00000000       0.00000000      27.34644508
2
Properties=species:S:1:pos:R:3:forces:R:3 energy=-15.94295118245863 pbc="F F F"
N        0.00000000       0.00000000       0.00000000       0.00000000       0.00000000     -10.69611263
N        0.00000000       0.00000000       1.05353535       0.00000000       0.00000000      10.69611263
2
Properties=species:S:1:pos:R:3:forces:R:3 energy=-16.237046128855102 pbc="F F F"
N        0.00000000       0.00000000       0.00000000       0.00000000       0.00000000       0.10623506
N        0.00000000       0.00000000       1.11313131       0.00000000       0.00000000      -0.10623506
2
Properties=species:S:1:pos:R:3:forces:R:3 energy=-16.03571208075947 pbc="F F F"
N        0.00000000       0.00000000       0.00000000       0.00000000       0.00000000       6.04302597
N        0.00000000       0.00000000       1.17272727       0.00000000       0.00000000      -6.04302597
2
Properties=species:S:1:pos:R:3:forces:R:3 energy=-15.573469747601523 pbc="F F F"
N        0.00000000       0.00000000       0.00000000       0.00000000       0.00000000       9.52522373
N        0.00000000       0.00000000       1.23232323       0.00000000       0.00000000      -9.52522373
2
Properties=species:S:1:pos:R:3:forces:R:3 energy=-14.931639698778392 pbc="F F F"
N        0.00000000       0.00000000       0.00000000       0.00000000       0.00000000      11.72018909
N        0.00000000       0.00000000       1.29191919       0.00000000       0.00000000     -11.72018909
2
Properties=species:S:1:pos:R:3:forces:R:3 energy=-14.187636303580401 pbc="F F F"
N        0.00000000       0.00000000       0.00000000       0.00000000       0.00000000      13.03293705
N        0.00000000       0.00000000       1.35151515       0.00000000       0.00000000     -13.03293705
2
Properties=species:S:1:pos:R:3:forces:R:3 energy=-13.395057956434746 pbc="F F F"
N        0.00000000       0.00000000       0.00000000       0.00000000       0.00000000      13.38508892
N        0.00000000       0.00000000       1.41111111       0.00000000       0.00000000     -13.38508892
2
Properties=species:S:1:pos:R:3:forces:R:3 energy=-12.597212248411656 pbc="F F F"
N        0.00000000       0.00000000       0.00000000       0.00000000       0.00000000      13.24541092
N        0.00000000       0.00000000       1.47070707       0.00000000       0.00000000     -13.24541092
2
Properties=species:S:1:pos:R:3:forces:R:3 energy=-11.831013866990473 pbc="F F F"
N        0.00000000       0.00000000       0.00000000       0.00000000       0.00000000      12.52197647
N        0.00000000       0.00000000       1.53030303       0.00000000       0.00000000     -12.52197647
2
Properties=species:S:1:pos:R:3:forces:R:3 energy=-11.101935834711753 pbc="F F F"
N        0.00000000       0.00000000       0.00000000       0.00000000       0.00000000      12.00352955
N        0.00000000       0.00000000       1.58989899       0.00000000       0.00000000     -12.00352955
2
Properties=species:S:1:pos:R:3:forces:R:3 energy=-10.391332139576871 pbc="F F F"
N        0.00000000       0.00000000       0.00000000       0.00000000       0.00000000      11.68921375
N        0.00000000       0.00000000       1.64949495       0.00000000       0.00000000     -11.68921375
2
Properties=species:S:1:pos:R:3:forces:R:3 energy=-9.725712368119597 pbc="F F F"
N        0.00000000       0.00000000       0.00000000       0.00000000       0.00000000      10.71330929
N        0.00000000       0.00000000       1.70909091       0.00000000       0.00000000     -10.71330929
2
Properties=species:S:1:pos:R:3:forces:R:3 energy=-9.109831797503617 pbc="F F F"
N        0.00000000       0.00000000       0.00000000       0.00000000       0.00000000       9.97570705
N        0.00000000       0.00000000       1.76868687       0.00000000       0.00000000      -9.97570705
2
Properties=species:S:1:pos:R:3:forces:R:3 energy=-8.54389937274489 pbc="F F F"
N        0.00000000       0.00000000       0.00000000       0.00000000       0.00000000       8.92042065
N        0.00000000       0.00000000       1.82828283       0.00000000       0.00000000      -8.92042065
2
Properties=species:S:1:pos:R:3:forces:R:3 energy=-8.035255316561585 pbc="F F F"
N        0.00000000       0.00000000       0.00000000       0.00000000       0.00000000       8.14624596
N        0.00000000       0.00000000       1.88787879       0.00000000       0.00000000      -8.14624596
2
Properties=species:S:1:pos:R:3:forces:R:3 energy=-7.580984295975724 pbc="F F F"
N        0.00000000       0.00000000       0.00000000       0.00000000       0.00000000       7.04127264
N        0.00000000       0.00000000       1.94747475       0.00000000       0.00000000      -7.04127264
2
Properties=species:S:1:pos:R:3:forces:R:3 energy=-7.20156682275357 pbc="F F F"
N        0.00000000       0.00000000       0.00000000       0.00000000       0.00000000       5.67038584
N        0.00000000       0.00000000       2.00707071       0.00000000       0.00000000      -5.67038584
2
Properties=species:S:1:pos:R:3:forces:R:3 energy=-6.899288118076054 pbc="F F F"
N        0.00000000       0.00000000       0.00000000       0.00000000       0.00000000       4.55074549
N        0.00000000       0.00000000       2.06666667       0.00000000       0.00000000      -4.55074549
2
Properties=species:S:1:pos:R:3:forces:R:3 energy=-6.657003701877509 pbc="F F F"
N        0.00000000       0.00000000       0.00000000       0.00000000       0.00000000       3.58244634
N        0.00000000       0.00000000       2.12626263       0.00000000       0.00000000      -3.58244634
2
Properties=species:S:1:pos:R:3:forces:R:3 energy=-6.468660734845115 pbc="F F F"
N        0.00000000       0.00000000       0.00000000       0.00000000       0.00000000       2.76658535
N        0.00000000       0.00000000       2.18585859       0.00000000       0.00000000      -2.76658535
2
Properties=species:S:1:pos:R:3:forces:R:3 energy=-6.326032482634671 pbc="F F F"
N        0.00000000       0.00000000       0.00000000       0.00000000       0.00000000       2.03551102
N        0.00000000       0.00000000       2.24545455       0.00000000       0.00000000      -2.03551102
2
Properties=species:S:1:pos:R:3:forces:R:3 energy=-6.222756393707413 pbc="F F F"
N        0.00000000       0.00000000       0.00000000       0.00000000       0.00000000       1.45350671
N        0.00000000       0.00000000       2.30505051       0.00000000       0.00000000      -1.45350671
2
Properties=species:S:1:pos:R:3:forces:R:3 energy=-6.150601150287407 pbc="F F F"
N        0.00000000       0.00000000       0.00000000       0.00000000       0.00000000       0.99204636
N        0.00000000       0.00000000       2.36464646       0.00000000       0.00000000      -0.99204636
2
Properties=species:S:1:pos:R:3:forces:R:3 energy=-6.100973573248177 pbc="F F F"
N        0.00000000       0.00000000       0.00000000       0.00000000       0.00000000       0.70136195
N        0.00000000       0.00000000       2.42424242       0.00000000       0.00000000      -0.70136195
2
Properties=species:S:1:pos:R:3:forces:R:3 energy=-6.064593305761307 pbc="F F F"
N        0.00000000       0.00000000       0.00000000       0.00000000       0.00000000       0.53159916
N        0.00000000       0.00000000       2.48383838       0.00000000       0.00000000      -0.53159916
2
Properties=species:S:1:pos:R:3:forces:R:3 energy=-6.0368995739267755 pbc="F F F"
N        0.00000000       0.00000000       0.00000000       0.00000000       0.00000000       0.40051496
N        0.00000000       0.00000000       2.54343434       0.00000000       0.00000000      -0.40051496
2
Properties=species:S:1:pos:R:3:forces:R:3 energy=-6.016493097559884 pbc="F F F"
N        0.00000000       0.00000000       0.00000000       0.00000000       0.00000000       0.28806284
N        0.00000000       0.00000000       2.60303030       0.00000000       0.00000000      -0.28806284
2
Properties=species:S:1:pos:R:3:forces:R:3 energy=-6.002089213208036 pbc="F F F"
N        0.00000000       0.00000000       0.00000000       0.00000000       0.00000000       0.19939473
N        0.00000000       0.00000000       2.66262626       0.00000000       0.00000000      -0.19939473
2
Properties=species:S:1:pos:R:3:forces:R:3 energy=-5.992194668048445 pbc="F F F"
N        0.00000000       0.00000000       0.00000000       0.00000000       0.00000000       0.13715523
N        0.00000000       0.00000000       2.72222222       0.00000000       0.00000000      -0.13715523
2
Properties=species:S:1:pos:R:3:forces:R:3 energy=-5.985297457305945 pbc="F F F"
N        0.00000000       0.00000000       0.00000000       0.00000000       0.00000000       0.09728527
N        0.00000000       0.00000000       2.78181818       0.00000000       0.00000000      -0.09728527
2
Properties=species:S:1:pos:R:3:forces:R:3 energy=-5.980345610733471 pbc="F F F"
N        0.00000000       0.00000000       0.00000000       0.00000000       0.00000000       0.07051452
N        0.00000000       0.00000000       2.84141414       0.00000000       0.00000000      -0.07051452
2
Properties=species:S:1:pos:R:3:forces:R:3 energy=-5.9767186077251395 pbc="F F F"
N        0.00000000       0.00000000       0.00000000       0.00000000       0.00000000       0.05270195
N        0.00000000       0.00000000       2.90101010       0.00000000       0.00000000      -0.05270195
2
Properties=species:S:1:pos:R:3:forces:R:3 energy=-5.973849710407622 pbc="F F F"
N        0.00000000       0.00000000       0.00000000       0.00000000       0.00000000       0.04564098
N        0.00000000       0.00000000       2.96060606       0.00000000       0.00000000      -0.04564098
2
Properties=species:S:1:pos:R:3:forces:R:3 energy=-5.971048577841428 pbc="F F F"
N        0.00000000       0.00000000       0.00000000       0.00000000       0.00000000       0.04987999
N        0.00000000       0.00000000       3.02020202       0.00000000       0.00000000      -0.04987999
2
Properties=species:S:1:pos:R:3:forces:R:3 energy=-5.967813073172856 pbc="F F F"
N        0.00000000       0.00000000       0.00000000       0.00000000       0.00000000       0.05865776
N        0.00000000       0.00000000       3.07979798       0.00000000       0.00000000      -0.05865776
2
Properties=species:S:1:pos:R:3:forces:R:3 energy=-5.964149641183509 pbc="F F F"
N        0.00000000       0.00000000       0.00000000       0.00000000       0.00000000       0.06313109
N        0.00000000       0.00000000       3.13939394       0.00000000       0.00000000      -0.06313109
2
Properties=species:S:1:pos:R:3:forces:R:3 energy=-5.9604130149774095 pbc="F F F"
N        0.00000000       0.00000000       0.00000000       0.00000000       0.00000000       0.06156993
N        0.00000000       0.00000000       3.19898990       0.00000000       0.00000000      -0.06156993
2
Properties=species:S:1:pos:R:3:forces:R:3 energy=-5.95684741231165 pbc="F F F"
N        0.00000000       0.00000000       0.00000000       0.00000000       0.00000000       0.05809140
N        0.00000000       0.00000000       3.25858586       0.00000000       0.00000000      -0.05809140
2
Properties=species:S:1:pos:R:3:forces:R:3 energy=-5.953469143372547 pbc="F F F"
N        0.00000000       0.00000000       0.00000000       0.00000000       0.00000000       0.05536798
N        0.00000000       0.00000000       3.31818182       0.00000000       0.00000000      -0.05536798
2
Properties=species:S:1:pos:R:3:forces:R:3 energy=-5.950239135543976 pbc="F F F"
N        0.00000000       0.00000000       0.00000000       0.00000000       0.00000000       0.05305197
N        0.00000000       0.00000000       3.37777778       0.00000000       0.00000000      -0.05305197
2
Properties=species:S:1:pos:R:3:forces:R:3 energy=-5.9471543946708865 pbc="F F F"
N        0.00000000       0.00000000       0.00000000       0.00000000       0.00000000       0.05040326
N        0.00000000       0.00000000       3.43737374       0.00000000       0.00000000      -0.05040326
2
Properties=species:S:1:pos:R:3:forces:R:3 energy=-5.944234583134826 pbc="F F F"
N        0.00000000       0.00000000       0.00000000       0.00000000       0.00000000       0.04765695
N        0.00000000       0.00000000       3.49696970       0.00000000       0.00000000      -0.04765695
2
Properties=species:S:1:pos:R:3:forces:R:3 energy=-5.9414637966193995 pbc="F F F"
N        0.00000000       0.00000000       0.00000000       0.00000000       0.00000000       0.04545591
N        0.00000000       0.00000000       3.55656566       0.00000000       0.00000000      -0.04545591
2
Properties=species:S:1:pos:R:3:forces:R:3 energy=-5.938801963060594 pbc="F F F"
N        0.00000000       0.00000000       0.00000000       0.00000000       0.00000000       0.04390259
N        0.00000000       0.00000000       3.61616162       0.00000000       0.00000000      -0.04390259
2
Properties=species:S:1:pos:R:3:forces:R:3 energy=-5.936232508939584 pbc="F F F"
N        0.00000000       0.00000000       0.00000000       0.00000000       0.00000000       0.04233740
N        0.00000000       0.00000000       3.67575758       0.00000000       0.00000000      -0.04233740
2
Properties=species:S:1:pos:R:3:forces:R:3 energy=-5.933772843364567 pbc="F F F"
N        0.00000000       0.00000000       0.00000000       0.00000000       0.00000000       0.03988482
N        0.00000000       0.00000000       3.73535354       0.00000000       0.00000000      -0.03988482
2
Properties=species:S:1:pos:R:3:forces:R:3 energy=-5.931502037196665 pbc="F F F"
N        0.00000000       0.00000000       0.00000000       0.00000000       0.00000000       0.03611908
N        0.00000000       0.00000000       3.79494949       0.00000000       0.00000000      -0.03611908
2
Properties=species:S:1:pos:R:3:forces:R:3 energy=-5.929486450708454 pbc="F F F"
N        0.00000000       0.00000000       0.00000000       0.00000000       0.00000000       0.03131128
N        0.00000000       0.00000000       3.85454545       0.00000000       0.00000000      -0.03131128
2
Properties=species:S:1:pos:R:3:forces:R:3 energy=-5.9277778591014805 pbc="F F F"
N        0.00000000       0.00000000       0.00000000       0.00000000       0.00000000       0.02618785
N        0.00000000       0.00000000       3.91414141       0.00000000       0.00000000      -0.02618785
2
Properties=species:S:1:pos:R:3:forces:R:3 energy=-5.926356270457121 pbc="F F F"
N        0.00000000       0.00000000       0.00000000       0.00000000       0.00000000       0.02147825
N        0.00000000       0.00000000       3.97373737       0.00000000       0.00000000      -0.02147825
2
Properties=species:S:1:pos:R:3:forces:R:3 energy=-5.925198626717318 pbc="F F F"
N        0.00000000       0.00000000       0.00000000       0.00000000       0.00000000       0.01760915
N        0.00000000       0.00000000       4.03333333       0.00000000       0.00000000      -0.01760915
2
Properties=species:S:1:pos:R:3:forces:R:3 energy=-5.924241646816198 pbc="F F F"
N        0.00000000       0.00000000       0.00000000       0.00000000       0.00000000       0.01467485
N        0.00000000       0.00000000       4.09292929       0.00000000       0.00000000      -0.01467485
2
Properties=species:S:1:pos:R:3:forces:R:3 energy=-5.9234314557583865 pbc="F F F"
N        0.00000000       0.00000000       0.00000000       0.00000000       0.00000000       0.01257175
N        0.00000000       0.00000000       4.15252525       0.00000000       0.00000000      -0.01257175
2
Properties=species:S:1:pos:R:3:forces:R:3 energy=-5.922729334779329 pbc="F F F"
N        0.00000000       0.00000000       0.00000000       0.00000000       0.00000000       0.01111412
N        0.00000000       0.00000000       4.21212121       0.00000000       0.00000000      -0.01111412
2
Properties=species:S:1:pos:R:3:forces:R:3 energy=-5.9220993532775115 pbc="F F F"
N        0.00000000       0.00000000       0.00000000       0.00000000       0.00000000       0.01007379
N        0.00000000       0.00000000       4.27171717       0.00000000       0.00000000      -0.01007379
2
Properties=species:S:1:pos:R:3:forces:R:3 energy=-5.921524605630471 pbc="F F F"
N        0.00000000       0.00000000       0.00000000       0.00000000       0.00000000       0.00918024
N        0.00000000       0.00000000       4.33131313       0.00000000       0.00000000      -0.00918024
2
Properties=species:S:1:pos:R:3:forces:R:3 energy=-5.9210053276048304 pbc="F F F"
N        0.00000000       0.00000000       0.00000000       0.00000000       0.00000000       0.00815000
N        0.00000000       0.00000000       4.39090909       0.00000000       0.00000000      -0.00815000
2
Properties=species:S:1:pos:R:3:forces:R:3 energy=-5.920564630083539 pbc="F F F"
N        0.00000000       0.00000000       0.00000000       0.00000000       0.00000000       0.00676677
N        0.00000000       0.00000000       4.45050505       0.00000000       0.00000000      -0.00676677
2
Properties=species:S:1:pos:R:3:forces:R:3 energy=-5.920213231529132 pbc="F F F"
N        0.00000000       0.00000000       0.00000000       0.00000000       0.00000000       0.00496814
N        0.00000000       0.00000000       4.51010101       0.00000000       0.00000000      -0.00496814
2
Properties=species:S:1:pos:R:3:forces:R:3 energy=-5.919975207784243 pbc="F F F"
N        0.00000000       0.00000000       0.00000000       0.00000000       0.00000000       0.00289638
N        0.00000000       0.00000000       4.56969697       0.00000000       0.00000000      -0.00289638
2
Properties=species:S:1:pos:R:3:forces:R:3 energy=-5.919866079836072 pbc="F F F"
N        0.00000000       0.00000000       0.00000000       0.00000000       0.00000000       0.00086743
N        0.00000000       0.00000000       4.62929293       0.00000000       0.00000000      -0.00086743
2
Properties=species:S:1:pos:R:3:forces:R:3 energy=-5.919860382454992 pbc="F F F"
N        0.00000000       0.00000000       0.00000000       0.00000000       0.00000000      -0.00072856
N        0.00000000       0.00000000       4.68888889       0.00000000       0.00000000       0.00072856
2
Properties=species:S:1:pos:R:3:forces:R:3 energy=-5.919932684465462 pbc="F F F"
N        0.00000000       0.00000000       0.00000000       0.00000000       0.00000000      -0.00155624
N        0.00000000       0.00000000       4.74848485       0.00000000       0.00000000       0.00155624
2
Properties=species:S:1:pos:R:3:forces:R:3 energy=-5.92002992555823 pbc="F F F"
N        0.00000000       0.00000000       0.00000000       0.00000000       0.00000000      -0.00143630
N        0.00000000       0.00000000       4.80808081       0.00000000       0.00000000       0.00143630
2
Properties=species:S:1:pos:R:3:forces:R:3 energy=-5.920085733086413 pbc="F F F"
N        0.00000000       0.00000000       0.00000000       0.00000000       0.00000000      -0.00038779
N        0.00000000       0.00000000       4.86767677       0.00000000       0.00000000       0.00038779
2
Properties=species:S:1:pos:R:3:forces:R:3 energy=-5.920062378191742 pbc="F F F"
N        0.00000000       0.00000000       0.00000000       0.00000000       0.00000000       0.00140107
N        0.00000000       0.00000000       4.92727273       0.00000000       0.00000000      -0.00140107
2
Properties=species:S:1:pos:R:3:forces:R:3 energy=-5.919912628138935 pbc="F F F"
N        0.00000000       0.00000000       0.00000000       0.00000000       0.00000000       0.00364545
N        0.00000000       0.00000000       4.98686869       0.00000000       0.00000000      -0.00364545
2
Properties=species:S:1:pos:R:3:forces:R:3 energy=-5.919622665421728 pbc="F F F"
N        0.00000000       0.00000000       0.00000000       0.00000000       0.00000000       0.00604135
N        0.00000000       0.00000000       5.04646465       0.00000000       0.00000000      -0.00604135
2
Properties=species:S:1:pos:R:3:forces:R:3 energy=-5.9191949142995925 pbc="F F F"
N        0.00000000       0.00000000       0.00000000       0.00000000       0.00000000       0.00832204
N        0.00000000       0.00000000       5.10606061       0.00000000       0.00000000      -0.00832204
2
Properties=species:S:1:pos:R:3:forces:R:3 energy=-5.918635647090391 pbc="F F F"
N        0.00000000       0.00000000       0.00000000       0.00000000       0.00000000       0.01027838
N        0.00000000       0.00000000       5.16565657       0.00000000       0.00000000      -0.01027838
2
Properties=species:S:1:pos:R:3:forces:R:3 energy=-5.917975961540535 pbc="F F F"
N        0.00000000       0.00000000       0.00000000       0.00000000       0.00000000       0.01175785
N        0.00000000       0.00000000       5.22525253       0.00000000       0.00000000      -0.01175785
2
Properties=species:S:1:pos:R:3:forces:R:3 energy=-5.917246028302128 pbc="F F F"
N        0.00000000       0.00000000       0.00000000       0.00000000       0.00000000       0.01265352
N        0.00000000       0.00000000       5.28484848       0.00000000       0.00000000      -0.01265352
2
Properties=species:S:1:pos:R:3:forces:R:3 energy=-5.916481767494631 pbc="F F F"
N        0.00000000       0.00000000       0.00000000       0.00000000       0.00000000       0.01290001
N        0.00000000       0.00000000       5.34444444       0.00000000       0.00000000      -0.01290001
2
Properties=species:S:1:pos:R:3:forces:R:3 energy=-5.915722938435895 pbc="F F F"
N        0.00000000       0.00000000       0.00000000       0.00000000       0.00000000       0.01248154
N        0.00000000       0.00000000       5.40404040       0.00000000       0.00000000      -0.01248154
2
Properties=species:S:1:pos:R:3:forces:R:3 energy=-5.91500741640833 pbc="F F F"
N        0.00000000       0.00000000       0.00000000       0.00000000       0.00000000       0.01144242
N        0.00000000       0.00000000       5.46363636       0.00000000       0.00000000      -0.01144242
2
Properties=species:S:1:pos:R:3:forces:R:3 energy=-5.914369282785913 pbc="F F F"
N        0.00000000       0.00000000       0.00000000       0.00000000       0.00000000       0.00989653
N        0.00000000       0.00000000       5.52323232       0.00000000       0.00000000      -0.00989653
2
Properties=species:S:1:pos:R:3:forces:R:3 energy=-5.913834056613109 pbc="F F F"
N        0.00000000       0.00000000       0.00000000       0.00000000       0.00000000       0.00801938
N        0.00000000       0.00000000       5.58282828       0.00000000       0.00000000      -0.00801938
2
Properties=species:S:1:pos:R:3:forces:R:3 energy=-5.913418690843083 pbc="F F F"
N        0.00000000       0.00000000       0.00000000       0.00000000       0.00000000       0.00602715
N        0.00000000       0.00000000       5.64242424       0.00000000       0.00000000      -0.00602715
2
Properties=species:S:1:pos:R:3:forces:R:3 energy=-5.913114407189947 pbc="F F F"
N        0.00000000       0.00000000       0.00000000       0.00000000       0.00000000       0.00414357
N        0.00000000       0.00000000       5.70202020       0.00000000       0.00000000      -0.00414357
2
Properties=species:S:1:pos:R:3:forces:R:3 energy=-5.912917211578506 pbc="F F F"
N        0.00000000       0.00000000       0.00000000       0.00000000       0.00000000       0.00256352
N        0.00000000       0.00000000       5.76161616       0.00000000       0.00000000      -0.00256352
2
Properties=species:S:1:pos:R:3:forces:R:3 energy=-5.91280404976199 pbc="F F F"
N        0.00000000       0.00000000       0.00000000       0.00000000       0.00000000       0.00141130
N        0.00000000       0.00000000       5.82121212       0.00000000       0.00000000      -0.00141130
2
Properties=species:S:1:pos:R:3:forces:R:3 energy=-5.912736623034011 pbc="F F F"
N        0.00000000       0.00000000       0.00000000       0.00000000       0.00000000       0.00072245
N        0.00000000       0.00000000       5.88080808       0.00000000       0.00000000      -0.00072245
2
Properties=species:S:1:pos:R:3:forces:R:3 energy=-5.912707161526924 pbc="F F F"
N        0.00000000       0.00000000       0.00000000       0.00000000       0.00000000       0.00042527
N        0.00000000       0.00000000       5.94040404       0.00000000       0.00000000      -0.00042527
2
Properties=species:S:1:pos:R:3:forces:R:3 energy=-5.912685972842136 pbc="F F F"
N        0.00000000       0.00000000       0.00000000       0.00000000       0.00000000       0.00035882
N        0.00000000       0.00000000       6.00000000       0.00000000       0.00000000      -0.00035882
