2
Properties=species:S:1:pos:R:3:forces:R:3 energy=0.3043680587074705 pbc="F F F"
Ne       0.00000000       0.00000000       0.00000000       0.00000000       0.00000000       0.00000000
Ne       0.00000000       0.00000000       0.10000000       0.00000000       0.00000000      -0.00000000
2
Properties=species:S:1:pos:R:3:forces:R:3 energy=0.3043680587074705 pbc="F F F"
Ne       0.00000000       0.00000000       0.00000000       0.00000000       0.00000000       0.00000000
Ne       0.00000000       0.00000000       0.15959596       0.00000000       0.00000000      -0.00000000
2
Properties=species:S:1:pos:R:3:forces:R:3 energy=0.3043680587074705 pbc="F F F"
Ne       0.00000000       0.00000000       0.00000000       0.00000000       0.00000000       0.00000001
Ne       0.00000000       0.00000000       0.21919192       0.00000000       0.00000000      -0.00000001
2
Properties=species:S:1:pos:R:3:forces:R:3 energy=0.3043680598954038 pbc="F F F"
Ne       0.00000000       0.00000000       0.00000000       0.00000000       0.00000000       0.00000003
Ne       0.00000000       0.00000000       0.27878788       0.00000000       0.00000000      -0.00000003
2
Properties=species:S:1:pos:R:3:forces:R:3 energy=0.30436806306322595 pbc="F F F"
Ne       0.00000000       0.00000000       0.00000000       0.00000000       0.00000000       0.00000008
Ne       0.00000000       0.00000000       0.33838384       0.00000000       0.00000000      -0.00000008
2
Properties=species:S:1:pos:R:3:forces:R:3 energy=0.3043680701908258 pbc="F F F"
Ne       0.00000000       0.00000000       0.00000000       0.00000000       0.00000000       0.00000018
Ne       0.00000000       0.00000000       0.39797980       0.00000000       0.00000000      -0.00000018
2
Properties=species:S:1:pos:R:3:forces:R:3 energy=0.3043680864259143 pbc="F F F"
Ne       0.00000000       0.00000000       0.00000000       0.00000000       0.00000000       0.00000037
Ne       0.00000000       0.00000000       0.45757576       0.00000000       0.00000000      -0.00000037
2
Properties=species:S:1:pos:R:3:forces:R:3 energy=0.3043681165202247 pbc="F F F"
Ne       0.00000000       0.00000000       0.00000000       0.00000000       0.00000000       0.00000068
Ne       0.00000000       0.00000000       0.51717172       0.00000000       0.00000000      -0.00000068
2
Properties=species:S:1:pos:R:3:forces:R:3 energy=0.3043681703732012 pbc="F F F"
Ne       0.00000000       0.00000000       0.00000000       0.00000000       0.00000000       0.00000117
Ne       0.00000000       0.00000000       0.57676768       0.00000000       0.00000000      -0.00000117
2
Properties=species:S:1:pos:R:3:forces:R:3 energy=0.3043682610521102 pbc="F F F"
Ne       0.00000000       0.00000000       0.00000000       0.00000000       0.00000000       0.00000192
Ne       0.00000000       0.00000000       0.63636364       0.00000000       0.00000000      -0.00000192
2
Properties=species:S:1:pos:R:3:forces:R:3 energy=0.30436840637595125 pbc="F F F"
Ne       0.00000000       0.00000000       0.00000000       0.00000000       0.00000000       0.00000301
Ne       0.00000000       0.00000000       0.69595960       0.00000000       0.00000000      -0.00000301
2
Properties=species:S:1:pos:R:3:forces:R:3 energy=0.30436862891545713 pbc="F F F"
Ne       0.00000000       0.00000000       0.00000000       0.00000000       0.00000000       0.00000456
Ne       0.00000000       0.00000000       0.75555556       0.00000000       0.00000000      -0.00000456
2
Properties=species:S:1:pos:R:3:forces:R:3 energy=0.3043689607448271 pbc="F F F"
Ne       0.00000000       0.00000000       0.00000000       0.00000000       0.00000000       0.00000668
Ne       0.00000000       0.00000000       0.81515152       0.00000000       0.00000000      -0.00000668
2
Properties=species:S:1:pos:R:3:forces:R:3 energy=0.30436944066988253 pbc="F F F"
Ne       0.00000000       0.00000000       0.00000000       0.00000000       0.00000000       0.00000955
Ne       0.00000000       0.00000000       0.87474747       0.00000000       0.00000000      -0.00000955
2
Properties=species:S:1:pos:R:3:forces:R:3 energy=0.3043701169999111 pbc="F F F"
Ne       0.00000000       0.00000000       0.00000000       0.00000000       0.00000000       0.00001332
Ne       0.00000000       0.00000000       0.93434343       0.00000000       0.00000000      -0.00001332
2
Properties=species:S:1:pos:R:3:forces:R:3 energy=0.304371051111467 pbc="F F F"
Ne       0.00000000       0.00000000       0.00000000       0.00000000       0.00000000       0.00001822
Ne       0.00000000       0.00000000       0.99393939       0.00000000       0.00000000      -0.00001822
2
Properties=species:S:1:pos:R:3:forces:R:3 energy=0.30437231626043737 pbc="F F F"
Ne       0.00000000       0.00000000       0.00000000       0.00000000       0.00000000       0.00002448
Ne       0.00000000       0.00000000       1.05353535       0.00000000       0.00000000      -0.00002448
2
Properties=species:S:1:pos:R:3:forces:R:3 energy=0.30437400154182004 pbc="F F F"
Ne       0.00000000       0.00000000       0.00000000       0.00000000       0.00000000       0.00003237
Ne       0.00000000       0.00000000       1.11313131       0.00000000       0.00000000      -0.00003237
2
Properties=species:S:1:pos:R:3:forces:R:3 energy=0.30437621228570155 pbc="F F F"
Ne       0.00000000       0.00000000       0.00000000       0.00000000       0.00000000       0.00004218
Ne       0.00000000       0.00000000       1.17272727       0.00000000       0.00000000      -0.00004218
2
Properties=species:S:1:pos:R:3:forces:R:3 energy=0.3043790732250789 pbc="F F F"
Ne       0.00000000       0.00000000       0.00000000       0.00000000       0.00000000       0.00005425
Ne       0.00000000       0.00000000       1.23232323       0.00000000       0.00000000      -0.00005425
2
Properties=species:S:1:pos:R:3:forces:R:3 energy=0.30438273126770427 pbc="F F F"
Ne       0.00000000       0.00000000       0.00000000       0.00000000       0.00000000       0.00006896
Ne       0.00000000       0.00000000       1.29191919       0.00000000       0.00000000      -0.00006896
2
Properties=species:S:1:pos:R:3:forces:R:3 energy=0.3043873539121737 pbc="F F F"
Ne       0.00000000       0.00000000       0.00000000       0.00000000       0.00000000       0.00008671
Ne       0.00000000       0.00000000       1.35151515       0.00000000       0.00000000      -0.00008671
2
Properties=species:S:1:pos:R:3:forces:R:3 energy=0.30439313558357145 pbc="F F F"
Ne       0.00000000       0.00000000       0.00000000       0.00000000       0.00000000       0.00010793
Ne       0.00000000       0.00000000       1.41111111       0.00000000       0.00000000      -0.00010793
2
Properties=species:S:1:pos:R:3:forces:R:3 energy=0.30440029684151465 pbc="F F F"
Ne       0.00000000       0.00000000       0.00000000       0.00000000       0.00000000       0.00013310
Ne       0.00000000       0.00000000       1.47070707       0.00000000       0.00000000      -0.00013310
2
Properties=species:S:1:pos:R:3:forces:R:3 energy=0.3044090871519975 pbc="F F F"
Ne       0.00000000       0.00000000       0.00000000       0.00000000       0.00000000       0.00016269
Ne       0.00000000       0.00000000       1.53030303       0.00000000       0.00000000      -0.00016269
2
Properties=species:S:1:pos:R:3:forces:R:3 energy=0.3044197864713022 pbc="F F F"
Ne       0.00000000       0.00000000       0.00000000       0.00000000       0.00000000       0.00019722
Ne       0.00000000       0.00000000       1.58989899       0.00000000       0.00000000      -0.00019722
2
Properties=species:S:1:pos:R:3:forces:R:3 energy=0.3044327028701327 pbc="F F F"
Ne       0.00000000       0.00000000       0.00000000       0.00000000       0.00000000       0.00023720
Ne       0.00000000       0.00000000       1.64949495       0.00000000       0.00000000      -0.00023720
2
Properties=species:S:1:pos:R:3:forces:R:3 energy=0.30444817688936987 pbc="F F F"
Ne       0.00000000       0.00000000       0.00000000       0.00000000       0.00000000       0.00028314
Ne       0.00000000       0.00000000       1.70909091       0.00000000       0.00000000      -0.00028314
2
Properties=species:S:1:pos:R:3:forces:R:3 energy=0.3044665791642051 pbc="F F F"
Ne       0.00000000       0.00000000       0.00000000       0.00000000       0.00000000       0.00033553
Ne       0.00000000       0.00000000       1.76868687       0.00000000       0.00000000      -0.00033553
2
Properties=species:S:1:pos:R:3:forces:R:3 energy=0.3044883068603402 pbc="F F F"
Ne       0.00000000       0.00000000       0.00000000       0.00000000       0.00000000       0.00039482
Ne       0.00000000       0.00000000       1.82828283       0.00000000       0.00000000      -0.00039482
2
Properties=species:S:1:pos:R:3:forces:R:3 energy=0.304513782486054 pbc="F F F"
Ne       0.00000000       0.00000000       0.00000000       0.00000000       0.00000000       0.00046138
Ne       0.00000000       0.00000000       1.88787879       0.00000000       0.00000000      -0.00046138
2
Properties=species:S:1:pos:R:3:forces:R:3 energy=0.30454344953644735 pbc="F F F"
Ne       0.00000000       0.00000000       0.00000000       0.00000000       0.00000000       0.00053551
Ne       0.00000000       0.00000000       1.94747475       0.00000000       0.00000000      -0.00053551
2
Properties=species:S:1:pos:R:3:forces:R:3 energy=0.3045777641779095 pbc="F F F"
Ne       0.00000000       0.00000000       0.00000000       0.00000000       0.00000000       0.00061737
Ne       0.00000000       0.00000000       2.00707071       0.00000000       0.00000000      -0.00061737
2
Properties=species:S:1:pos:R:3:forces:R:3 energy=0.3046171885164963 pbc="F F F"
Ne       0.00000000       0.00000000       0.00000000       0.00000000       0.00000000       0.00070697
Ne       0.00000000       0.00000000       2.06666667       0.00000000       0.00000000      -0.00070697
2
Properties=species:S:1:pos:R:3:forces:R:3 energy=0.3046621799065304 pbc="F F F"
Ne       0.00000000       0.00000000       0.00000000       0.00000000       0.00000000       0.00080414
Ne       0.00000000       0.00000000       2.12626263       0.00000000       0.00000000      -0.00080414
2
Properties=species:S:1:pos:R:3:forces:R:3 energy=0.3047131770913792 pbc="F F F"
Ne       0.00000000       0.00000000       0.00000000       0.00000000       0.00000000       0.00090845
Ne       0.00000000       0.00000000       2.18585859       0.00000000       0.00000000      -0.00090845
2
Properties=species:S:1:pos:R:3:forces:R:3 energy=0.3047705891160776 pbc="F F F"
Ne       0.00000000       0.00000000       0.00000000       0.00000000       0.00000000       0.00101925
Ne       0.00000000       0.00000000       2.24545455       0.00000000       0.00000000      -0.00101925
2
Properties=species:S:1:pos:R:3:forces:R:3 energy=0.30483477394452835 pbc="F F F"
Ne       0.00000000       0.00000000       0.00000000       0.00000000       0.00000000       0.00113557
Ne       0.00000000       0.00000000       2.30505051       0.00000000       0.00000000      -0.00113557
2
Properties=species:S:1:pos:R:3:forces:R:3 energy=0.30490602499625785 pbc="F F F"
Ne       0.00000000       0.00000000       0.00000000       0.00000000       0.00000000       0.00125615
Ne       0.00000000       0.00000000       2.36464646       0.00000000       0.00000000      -0.00125615
2
Properties=species:S:1:pos:R:3:forces:R:3 energy=0.304984549367639 pbc="F F F"
Ne       0.00000000       0.00000000       0.00000000       0.00000000       0.00000000       0.00137938
Ne       0.00000000       0.00000000       2.42424242       0.00000000       0.00000000      -0.00137938
2
Properties=species:S:1:pos:R:3:forces:R:3 energy=0.30507045159680285 pbc="F F F"
Ne       0.00000000       0.00000000       0.00000000       0.00000000       0.00000000       0.00150339
Ne       0.00000000       0.00000000       2.48383838       0.00000000       0.00000000      -0.00150339
2
Properties=species:S:1:pos:R:3:forces:R:3 energy=0.3051637142607274 pbc="F F F"
Ne       0.00000000       0.00000000       0.00000000       0.00000000       0.00000000       0.00162599
Ne       0.00000000       0.00000000       2.54343434       0.00000000       0.00000000      -0.00162599
2
Properties=species:S:1:pos:R:3:forces:R:3 energy=0.3052641809481942 pbc="F F F"
Ne       0.00000000       0.00000000       0.00000000       0.00000000       0.00000000       0.00174477
Ne       0.00000000       0.00000000       2.60303030       0.00000000       0.00000000      -0.00174477
2
Properties=species:S:1:pos:R:3:forces:R:3 energy=0.3053715503201213 pbc="F F F"
Ne       0.00000000       0.00000000       0.00000000       0.00000000       0.00000000       0.00185720
Ne       0.00000000       0.00000000       2.66262626       0.00000000       0.00000000      -0.00185720
2
Properties=species:S:1:pos:R:3:forces:R:3 energy=0.3054853658141418 pbc="F F F"
Ne       0.00000000       0.00000000       0.00000000       0.00000000       0.00000000       0.00196065
Ne       0.00000000       0.00000000       2.72222222       0.00000000       0.00000000      -0.00196065
2
Properties=species:S:1:pos:R:3:forces:R:3 energy=0.3056050156446033 pbc="F F F"
Ne       0.00000000       0.00000000       0.00000000       0.00000000       0.00000000       0.00205261
Ne       0.00000000       0.00000000       2.78181818       0.00000000       0.00000000      -0.00205261
2
Properties=species:S:1:pos:R:3:forces:R:3 energy=0.30572974586983453 pbc="F F F"
Ne       0.00000000       0.00000000       0.00000000       0.00000000       0.00000000       0.00213077
Ne       0.00000000       0.00000000       2.84141414       0.00000000       0.00000000      -0.00213077
2
Properties=species:S:1:pos:R:3:forces:R:3 energy=0.3058586712815341 pbc="F F F"
Ne       0.00000000       0.00000000       0.00000000       0.00000000       0.00000000       0.00219314
Ne       0.00000000       0.00000000       2.90101010       0.00000000       0.00000000      -0.00219314
2
Properties=species:S:1:pos:R:3:forces:R:3 energy=0.30599080648902505 pbc="F F F"
Ne       0.00000000       0.00000000       0.00000000       0.00000000       0.00000000       0.00223824
Ne       0.00000000       0.00000000       2.96060606       0.00000000       0.00000000      -0.00223824
2
Properties=species:S:1:pos:R:3:forces:R:3 energy=0.30612508928194343 pbc="F F F"
Ne       0.00000000       0.00000000       0.00000000       0.00000000       0.00000000       0.00226513
Ne       0.00000000       0.00000000       3.02020202       0.00000000       0.00000000      -0.00226513
2
Properties=species:S:1:pos:R:3:forces:R:3 energy=0.30626042260388164 pbc="F F F"
Ne       0.00000000       0.00000000       0.00000000       0.00000000       0.00000000       0.00227348
Ne       0.00000000       0.00000000       3.07979798       0.00000000       0.00000000      -0.00227348
2
Properties=species:S:1:pos:R:3:forces:R:3 energy=0.30639570722055437 pbc="F F F"
Ne       0.00000000       0.00000000       0.00000000       0.00000000       0.00000000       0.00226360
Ne       0.00000000       0.00000000       3.13939394       0.00000000       0.00000000      -0.00226360
2
Properties=species:S:1:pos:R:3:forces:R:3 energy=0.3065298813175753 pbc="F F F"
Ne       0.00000000       0.00000000       0.00000000       0.00000000       0.00000000       0.00223641
Ne       0.00000000       0.00000000       3.19898990       0.00000000       0.00000000      -0.00223641
2
Properties=species:S:1:pos:R:3:forces:R:3 energy=0.3066619535646011 pbc="F F F"
Ne       0.00000000       0.00000000       0.00000000       0.00000000       0.00000000       0.00219332
Ne       0.00000000       0.00000000       3.25858586       0.00000000       0.00000000      -0.00219332
2
Properties=species:S:1:pos:R:3:forces:R:3 energy=0.3067910272699749 pbc="F F F"
Ne       0.00000000       0.00000000       0.00000000       0.00000000       0.00000000       0.00213613
Ne       0.00000000       0.00000000       3.31818182       0.00000000       0.00000000      -0.00213613
2
Properties=species:S:1:pos:R:3:forces:R:3 energy=0.3069163249313484 pbc="F F F"
Ne       0.00000000       0.00000000       0.00000000       0.00000000       0.00000000       0.00206695
Ne       0.00000000       0.00000000       3.37777778       0.00000000       0.00000000      -0.00206695
2
Properties=species:S:1:pos:R:3:forces:R:3 energy=0.30703719575925903 pbc="F F F"
Ne       0.00000000       0.00000000       0.00000000       0.00000000       0.00000000       0.00198799
Ne       0.00000000       0.00000000       3.43737374       0.00000000       0.00000000      -0.00198799
2
Properties=species:S:1:pos:R:3:forces:R:3 energy=0.3071531267645077 pbc="F F F"
Ne       0.00000000       0.00000000       0.00000000       0.00000000       0.00000000       0.00190150
Ne       0.00000000       0.00000000       3.49696970       0.00000000       0.00000000      -0.00190150
2
Properties=species:S:1:pos:R:3:forces:R:3 energy=0.30726373355167563 pbc="F F F"
Ne       0.00000000       0.00000000       0.00000000       0.00000000       0.00000000       0.00180965
Ne       0.00000000       0.00000000       3.55656566       0.00000000       0.00000000      -0.00180965
2
Properties=species:S:1:pos:R:3:forces:R:3 energy=0.3073687565573356 pbc="F F F"
Ne       0.00000000       0.00000000       0.00000000       0.00000000       0.00000000       0.00171445
Ne       0.00000000       0.00000000       3.61616162       0.00000000       0.00000000      -0.00171445
2
Properties=species:S:1:pos:R:3:forces:R:3 energy=0.3074680508536243 pbc="F F F"
Ne       0.00000000       0.00000000       0.00000000       0.00000000       0.00000000       0.00161768
Ne       0.00000000       0.00000000       3.67575758       0.00000000       0.00000000      -0.00161768
2
Properties=species:S:1:pos:R:3:forces:R:3 energy=0.3075615707051095 pbc="F F F"
Ne       0.00000000       0.00000000       0.00000000       0.00000000       0.00000000       0.00152089
Ne       0.00000000       0.00000000       3.73535354       0.00000000       0.00000000      -0.00152089
2
Properties=species:S:1:pos:R:3:forces:R:3 energy=0.3076493544226403 pbc="F F F"
Ne       0.00000000       0.00000000       0.00000000       0.00000000       0.00000000       0.00142537
Ne       0.00000000       0.00000000       3.79494949       0.00000000       0.00000000      -0.00142537
2
Properties=species:S:1:pos:R:3:forces:R:3 energy=0.3077315090192086 pbc="F F F"
Ne       0.00000000       0.00000000       0.00000000       0.00000000       0.00000000       0.00133215
Ne       0.00000000       0.00000000       3.85454545       0.00000000       0.00000000      -0.00133215
2
Properties=species:S:1:pos:R:3:forces:R:3 energy=0.3078081974396662 pbc="F F F"
Ne       0.00000000       0.00000000       0.00000000       0.00000000       0.00000000       0.00124204
Ne       0.00000000       0.00000000       3.91414141       0.00000000       0.00000000      -0.00124204
2
Properties=species:S:1:pos:R:3:forces:R:3 energy=0.3078796242065305 pbc="F F F"
Ne       0.00000000       0.00000000       0.00000000       0.00000000       0.00000000       0.00115565
Ne       0.00000000       0.00000000       3.97373737       0.00000000       0.00000000      -0.00115565
2
Properties=species:S:1:pos:R:3:forces:R:3 energy=0.30794602324366815 pbc="F F F"
Ne       0.00000000       0.00000000       0.00000000       0.00000000       0.00000000       0.00107337
Ne       0.00000000       0.00000000       4.03333333       0.00000000       0.00000000      -0.00107337
2
Properties=species:S:1:pos:R:3:forces:R:3 energy=0.30800764916478446 pbc="F F F"
Ne       0.00000000       0.00000000       0.00000000       0.00000000       0.00000000       0.00099549
Ne       0.00000000       0.00000000       4.09292929       0.00000000       0.00000000      -0.00099549
2
Properties=species:S:1:pos:R:3:forces:R:3 energy=0.3080647677204592 pbc="F F F"
Ne       0.00000000       0.00000000       0.00000000       0.00000000       0.00000000       0.00092213
Ne       0.00000000       0.00000000       4.15252525       0.00000000       0.00000000      -0.00092213
2
Properties=species:S:1:pos:R:3:forces:R:3 energy=0.3081176495614972 pbc="F F F"
Ne       0.00000000       0.00000000       0.00000000       0.00000000       0.00000000       0.00085332
Ne       0.00000000       0.00000000       4.21212121       0.00000000       0.00000000      -0.00085332
2
Properties=species:S:1:pos:R:3:forces:R:3 energy=0.30816656523970865 pbc="F F F"
Ne       0.00000000       0.00000000       0.00000000       0.00000000       0.00000000       0.00078901
Ne       0.00000000       0.00000000       4.27171717       0.00000000       0.00000000      -0.00078901
2
Properties=species:S:1:pos:R:3:forces:R:3 energy=0.30821177996120414 pbc="F F F"
Ne       0.00000000       0.00000000       0.00000000       0.00000000       0.00000000       0.00072909
Ne       0.00000000       0.00000000       4.33131313       0.00000000       0.00000000      -0.00072909
2
Properties=species:S:1:pos:R:3:forces:R:3 energy=0.3082535510125387 pbc="F F F"
Ne       0.00000000       0.00000000       0.00000000       0.00000000       0.00000000       0.00067341
Ne       0.00000000       0.00000000       4.39090909       0.00000000       0.00000000      -0.00067341
2
Properties=species:S:1:pos:R:3:forces:R:3 energy=0.3082921253353482 pbc="F F F"
Ne       0.00000000       0.00000000       0.00000000       0.00000000       0.00000000       0.00062177
Ne       0.00000000       0.00000000       4.45050505       0.00000000       0.00000000      -0.00062177
2
Properties=species:S:1:pos:R:3:forces:R:3 energy=0.3083277377939466 pbc="F F F"
Ne       0.00000000       0.00000000       0.00000000       0.00000000       0.00000000       0.00057399
Ne       0.00000000       0.00000000       4.51010101       0.00000000       0.00000000      -0.00057399
2
Properties=species:S:1:pos:R:3:forces:R:3 energy=0.3083606117692926 pbc="F F F"
Ne       0.00000000       0.00000000       0.00000000       0.00000000       0.00000000       0.00052982
Ne       0.00000000       0.00000000       4.56969697       0.00000000       0.00000000      -0.00052982
2
Properties=species:S:1:pos:R:3:forces:R:3 energy=0.30839095596641863 pbc="F F F"
Ne       0.00000000       0.00000000       0.00000000       0.00000000       0.00000000       0.00048906
Ne       0.00000000       0.00000000       4.62929293       0.00000000       0.00000000      -0.00048906
2
Properties=species:S:1:pos:R:3:forces:R:3 energy=0.3084189665428119 pbc="F F F"
Ne       0.00000000       0.00000000       0.00000000       0.00000000       0.00000000       0.00045147
Ne       0.00000000       0.00000000       4.68888889       0.00000000       0.00000000      -0.00045147
2
Properties=species:S:1:pos:R:3:forces:R:3 energy=0.3084448258214862 pbc="F F F"
Ne       0.00000000       0.00000000       0.00000000       0.00000000       0.00000000       0.00041684
Ne       0.00000000       0.00000000       4.74848485       0.00000000       0.00000000      -0.00041684
2
Properties=species:S:1:pos:R:3:forces:R:3 energy=0.30846870434511664 pbc="F F F"
Ne       0.00000000       0.00000000       0.00000000       0.00000000       0.00000000       0.00038495
Ne       0.00000000       0.00000000       4.80808081       0.00000000       0.00000000      -0.00038495
2
Properties=species:S:1:pos:R:3:forces:R:3 energy=0.3084907591683857 pbc="F F F"
Ne       0.00000000       0.00000000       0.00000000       0.00000000       0.00000000       0.00035560
Ne       0.00000000       0.00000000       4.86767677       0.00000000       0.00000000      -0.00035560
2
Properties=species:S:1:pos:R:3:forces:R:3 energy=0.3085111357388774 pbc="F F F"
Ne       0.00000000       0.00000000       0.00000000       0.00000000       0.00000000       0.00032860
Ne       0.00000000       0.00000000       4.92727273       0.00000000       0.00000000      -0.00032860
2
Properties=species:S:1:pos:R:3:forces:R:3 energy=0.30852996863953586 pbc="F F F"
Ne       0.00000000       0.00000000       0.00000000       0.00000000       0.00000000       0.00030376
Ne       0.00000000       0.00000000       4.98686869       0.00000000       0.00000000      -0.00030376
2
Properties=species:S:1:pos:R:3:forces:R:3 energy=0.30854738134117904 pbc="F F F"
Ne       0.00000000       0.00000000       0.00000000       0.00000000       0.00000000       0.00028092
Ne       0.00000000       0.00000000       5.04646465       0.00000000       0.00000000      -0.00028092
2
Properties=species:S:1:pos:R:3:forces:R:3 energy=0.30856348823188473 pbc="F F F"
Ne       0.00000000       0.00000000       0.00000000       0.00000000       0.00000000       0.00025991
Ne       0.00000000       0.00000000       5.10606061       0.00000000       0.00000000      -0.00025991
2
Properties=species:S:1:pos:R:3:forces:R:3 energy=0.3085783939240297 pbc="F F F"
Ne       0.00000000       0.00000000       0.00000000       0.00000000       0.00000000       0.00024058
Ne       0.00000000       0.00000000       5.16565657       0.00000000       0.00000000      -0.00024058
2
Properties=species:S:1:pos:R:3:forces:R:3 energy=0.30859219450409436 pbc="F F F"
Ne       0.00000000       0.00000000       0.00000000       0.00000000       0.00000000       0.00022280
Ne       0.00000000       0.00000000       5.22525253       0.00000000       0.00000000      -0.00022280
2
Properties=species:S:1:pos:R:3:forces:R:3 energy=0.30860497860922725 pbc="F F F"
Ne       0.00000000       0.00000000       0.00000000       0.00000000       0.00000000       0.00020645
Ne       0.00000000       0.00000000       5.28484848       0.00000000       0.00000000      -0.00020645
2
Properties=species:S:1:pos:R:3:forces:R:3 energy=0.3086168271426363 pbc="F F F"
Ne       0.00000000       0.00000000       0.00000000       0.00000000       0.00000000       0.00019139
Ne       0.00000000       0.00000000       5.34444444       0.00000000       0.00000000      -0.00019139
2
Properties=species:S:1:pos:R:3:forces:R:3 energy=0.30862781454814187 pbc="F F F"
Ne       0.00000000       0.00000000       0.00000000       0.00000000       0.00000000       0.00017753
Ne       0.00000000       0.00000000       5.40404040       0.00000000       0.00000000      -0.00017753
2
Properties=species:S:1:pos:R:3:forces:R:3 energy=0.30863800900816607 pbc="F F F"
Ne       0.00000000       0.00000000       0.00000000       0.00000000       0.00000000       0.00016476
Ne       0.00000000       0.00000000       5.46363636       0.00000000       0.00000000      -0.00016476
2
Properties=species:S:1:pos:R:3:forces:R:3 energy=0.30864747306244766 pbc="F F F"
Ne       0.00000000       0.00000000       0.00000000       0.00000000       0.00000000       0.00015300
Ne       0.00000000       0.00000000       5.52323232       0.00000000       0.00000000      -0.00015300
2
Properties=species:S:1:pos:R:3:forces:R:3 energy=0.3086562639297742 pbc="F F F"
Ne       0.00000000       0.00000000       0.00000000       0.00000000       0.00000000       0.00014216
Ne       0.00000000       0.00000000       5.58282828       0.00000000       0.00000000      -0.00014216
2
Properties=species:S:1:pos:R:3:forces:R:3 energy=0.3086644343123118 pbc="F F F"
Ne       0.00000000       0.00000000       0.00000000       0.00000000       0.00000000       0.00013217
Ne       0.00000000       0.00000000       5.64242424       0.00000000       0.00000000      -0.00013217
2
Properties=species:S:1:pos:R:3:forces:R:3 energy=0.30867203237085655 pbc="F F F"
Ne       0.00000000       0.00000000       0.00000000       0.00000000       0.00000000       0.00012294
Ne       0.00000000       0.00000000       5.70202020       0.00000000       0.00000000      -0.00012294
2
Properties=species:S:1:pos:R:3:forces:R:3 energy=0.3086791022321811 pbc="F F F"
Ne       0.00000000       0.00000000       0.00000000       0.00000000       0.00000000       0.00011443
Ne       0.00000000       0.00000000       5.76161616       0.00000000       0.00000000      -0.00011443
2
Properties=species:S:1:pos:R:3:forces:R:3 energy=0.308685684539691 pbc="F F F"
Ne       0.00000000       0.00000000       0.00000000       0.00000000       0.00000000       0.00010657
Ne       0.00000000       0.00000000       5.82121212       0.00000000       0.00000000      -0.00010657
2
Properties=species:S:1:pos:R:3:forces:R:3 energy=0.3086918164286764 pbc="F F F"
Ne       0.00000000       0.00000000       0.00000000       0.00000000       0.00000000       0.00009931
Ne       0.00000000       0.00000000       5.88080808       0.00000000       0.00000000      -0.00009931
2
Properties=species:S:1:pos:R:3:forces:R:3 energy=0.30869753212646567 pbc="F F F"
Ne       0.00000000       0.00000000       0.00000000       0.00000000       0.00000000       0.00009259
Ne       0.00000000       0.00000000       5.94040404       0.00000000       0.00000000      -0.00009259
2
Properties=species:S:1:pos:R:3:forces:R:3 energy=0.3087028629524254 pbc="F F F"
Ne       0.00000000       0.00000000       0.00000000       0.00000000       0.00000000       0.00008638
Ne       0.00000000       0.00000000       6.00000000       0.00000000       0.00000000      -0.00008638
