2
Properties=species:S:1:pos:R:3:forces:R:3 energy=-194582.4447800798 pbc="F F F"
O        0.00000000       0.00000000       0.00000000       0.00000000       0.00000000 1095312.87500000
O        0.00000000       0.00000000       0.10000000       0.00000000       0.00000000 -1095312.87500000
2
Properties=species:S:1:pos:R:3:forces:R:3 energy=-125316.71040507978 pbc="F F F"
O        0.00000000       0.00000000       0.00000000       0.00000000       0.00000000 1148457.62500000
O        0.00000000       0.00000000       0.15959596       0.00000000       0.00000000 -1148457.62500000
2
Properties=species:S:1:pos:R:3:forces:R:3 energy=-64850.7924363282 pbc="F F F"
O        0.00000000       0.00000000       0.00000000       0.00000000       0.00000000  845544.12500000
O        0.00000000       0.00000000       0.21919192       0.00000000       0.00000000 -845544.12500000
2
Properties=species:S:1:pos:R:3:forces:R:3 energy=-26120.126420702407 pbc="F F F"
O        0.00000000       0.00000000       0.00000000       0.00000000       0.00000000  459600.15625000
O        0.00000000       0.00000000       0.27878788       0.00000000       0.00000000 -459600.15625000
2
Properties=species:S:1:pos:R:3:forces:R:3 energy=-7912.351518354699 pbc="F F F"
O        0.00000000       0.00000000       0.00000000       0.00000000       0.00000000  177406.31250000
O        0.00000000       0.00000000       0.33838384       0.00000000       0.00000000 -177406.31250000
2
Properties=species:S:1:pos:R:3:forces:R:3 energy=-1896.5252244014664 pbc="F F F"
O        0.00000000       0.00000000       0.00000000       0.00000000       0.00000000   54578.01562500
O        0.00000000       0.00000000       0.39797980       0.00000000       0.00000000  -54578.01562500
2
Properties=species:S:1:pos:R:3:forces:R:3 energy=-291.8113877117457 pbc="F F F"
O        0.00000000       0.00000000       0.00000000       0.00000000       0.00000000   10765.81054688
O        0.00000000       0.00000000       0.45757576       0.00000000       0.00000000  -10765.81054688
2
Properties=species:S:1:pos:R:3:forces:R:3 energy=94.87180934537668 pbc="F F F"
O        0.00000000       0.00000000       0.00000000       0.00000000       0.00000000    3285.77514648
O        0.00000000       0.00000000       0.51717172       0.00000000       0.00000000   -3285.77514648
2
Properties=species:S:1:pos:R:3:forces:R:3 energy=140.99397127475945 pbc="F F F"
O        0.00000000       0.00000000       0.00000000       0.00000000       0.00000000    -693.86560059
O        0.00000000       0.00000000       0.57676768       0.00000000       0.00000000     693.86560059
2
Properties=species:S:1:pos:R:3:forces:R:3 energy=70.29074719954454 pbc="F F F"
O        0.00000000       0.00000000       0.00000000       0.00000000       0.00000000    -751.04058838
O        0.00000000       0.00000000       0.63636364       0.00000000       0.00000000     751.04058838
2
Properties=species:S:1:pos:R:3:forces:R:3 energy=41.205515591184984 pbc="F F F"
O        0.00000000       0.00000000       0.00000000       0.00000000       0.00000000    -375.29238892
O        0.00000000       0.00000000       0.69595960       0.00000000       0.00000000     375.29238892
2
Properties=species:S:1:pos:R:3:forces:R:3 energy=23.277777666000873 pbc="F F F"
O        0.00000000       0.00000000       0.00000000       0.00000000       0.00000000    -245.86392212
O        0.00000000       0.00000000       0.75555556       0.00000000       0.00000000     245.86392212
2
Properties=species:S:1:pos:R:3:forces:R:3 energy=11.318603904205764 pbc="F F F"
O        0.00000000       0.00000000       0.00000000       0.00000000       0.00000000    -157.12461853
O        0.00000000       0.00000000       0.81515152       0.00000000       0.00000000     157.12461853
2
Properties=species:S:1:pos:R:3:forces:R:3 energy=3.401190763657854 pbc="F F F"
O        0.00000000       0.00000000       0.00000000       0.00000000       0.00000000    -112.64420319
O        0.00000000       0.00000000       0.87474747       0.00000000       0.00000000     112.64420319
2
Properties=species:S:1:pos:R:3:forces:R:3 energy=-2.2077104100463383 pbc="F F F"
O        0.00000000       0.00000000       0.00000000       0.00000000       0.00000000     -75.21061707
O        0.00000000       0.00000000       0.93434343       0.00000000       0.00000000      75.21061707
2
Properties=species:S:1:pos:R:3:forces:R:3 energy=-5.733646383275798 pbc="F F F"
O        0.00000000       0.00000000       0.00000000       0.00000000       0.00000000     -44.77311325
O        0.00000000       0.00000000       0.99393939       0.00000000       0.00000000      44.77311325
2
Properties=species:S:1:pos:R:3:forces:R:3 energy=-7.800714430430138 pbc="F F F"
O        0.00000000       0.00000000       0.00000000       0.00000000       0.00000000     -25.95243835
O        0.00000000       0.00000000       1.05353535       0.00000000       0.00000000      25.95243835
2
Properties=species:S:1:pos:R:3:forces:R:3 energy=-8.949569152175888 pbc="F F F"
O        0.00000000       0.00000000       0.00000000       0.00000000       0.00000000     -13.70630550
O        0.00000000       0.00000000       1.11313131       0.00000000       0.00000000      13.70630550
2
Properties=species:S:1:pos:R:3:forces:R:3 energy=-9.52925011498833 pbc="F F F"
O        0.00000000       0.00000000       0.00000000       0.00000000       0.00000000      -5.82498884
O        0.00000000       0.00000000       1.17272727       0.00000000       0.00000000       5.82498884
2
Properties=species:S:1:pos:R:3:forces:R:3 energy=-9.695990827555807 pbc="F F F"
O        0.00000000       0.00000000       0.00000000       0.00000000       0.00000000      -0.26396659
O        0.00000000       0.00000000       1.23232323       0.00000000       0.00000000       0.26396659
2
Properties=species:S:1:pos:R:3:forces:R:3 energy=-9.61973952547454 pbc="F F F"
O        0.00000000       0.00000000       0.00000000       0.00000000       0.00000000       2.71803474
O        0.00000000       0.00000000       1.29191919       0.00000000       0.00000000      -2.71803474
2
Properties=species:S:1:pos:R:3:forces:R:3 energy=-9.398682166774764 pbc="F F F"
O        0.00000000       0.00000000       0.00000000       0.00000000       0.00000000       4.70559597
O        0.00000000       0.00000000       1.35151515       0.00000000       0.00000000      -4.70559597
2
Properties=species:S:1:pos:R:3:forces:R:3 energy=-9.054205684885991 pbc="F F F"
O        0.00000000       0.00000000       0.00000000       0.00000000       0.00000000       6.71419239
O        0.00000000       0.00000000       1.41111111       0.00000000       0.00000000      -6.71419239
2
Properties=species:S:1:pos:R:3:forces:R:3 energy=-8.628566279703437 pbc="F F F"
O        0.00000000       0.00000000       0.00000000       0.00000000       0.00000000       7.39761496
O        0.00000000       0.00000000       1.47070707       0.00000000       0.00000000      -7.39761496
2
Properties=species:S:1:pos:R:3:forces:R:3 energy=-8.174346035138074 pbc="F F F"
O        0.00000000       0.00000000       0.00000000       0.00000000       0.00000000       7.89301157
O        0.00000000       0.00000000       1.53030303       0.00000000       0.00000000      -7.89301157
2
Properties=species:S:1:pos:R:3:forces:R:3 energy=-7.684989948154936 pbc="F F F"
O        0.00000000       0.00000000       0.00000000       0.00000000       0.00000000       8.57465935
O        0.00000000       0.00000000       1.58989899       0.00000000       0.00000000      -8.57465935
2
Properties=species:S:1:pos:R:3:forces:R:3 energy=-7.15303228400736 pbc="F F F"
O        0.00000000       0.00000000       0.00000000       0.00000000       0.00000000       9.06014919
O        0.00000000       0.00000000       1.64949495       0.00000000       0.00000000      -9.06014919
2
Properties=species:S:1:pos:R:3:forces:R:3 energy=-6.622728310828195 pbc="F F F"
O        0.00000000       0.00000000       0.00000000       0.00000000       0.00000000       8.78620720
O        0.00000000       0.00000000       1.70909091       0.00000000       0.00000000      -8.78620720
2
Properties=species:S:1:pos:R:3:forces:R:3 energy=-6.10860412088151 pbc="F F F"
O        0.00000000       0.00000000       0.00000000       0.00000000       0.00000000       8.40781403
O        0.00000000       0.00000000       1.76868687       0.00000000       0.00000000      -8.40781403
2
Properties=species:S:1:pos:R:3:forces:R:3 energy=-5.62087016446556 pbc="F F F"
O        0.00000000       0.00000000       0.00000000       0.00000000       0.00000000       7.86268711
O        0.00000000       0.00000000       1.82828283       0.00000000       0.00000000      -7.86268711
2
Properties=species:S:1:pos:R:3:forces:R:3 energy=-5.203948079358721 pbc="F F F"
O        0.00000000       0.00000000       0.00000000       0.00000000       0.00000000       5.93248892
O        0.00000000       0.00000000       1.88787879       0.00000000       0.00000000      -5.93248892
2
Properties=species:S:1:pos:R:3:forces:R:3 energy=-4.929102691896138 pbc="F F F"
O        0.00000000       0.00000000       0.00000000       0.00000000       0.00000000       3.30575776
O        0.00000000       0.00000000       1.94747475       0.00000000       0.00000000      -3.30575776
2
Properties=species:S:1:pos:R:3:forces:R:3 energy=-4.7928492580413575 pbc="F F F"
O        0.00000000       0.00000000       0.00000000       0.00000000       0.00000000       1.46034420
O        0.00000000       0.00000000       2.00707071       0.00000000       0.00000000      -1.46034420
2
Properties=species:S:1:pos:R:3:forces:R:3 energy=-4.729941105945162 pbc="F F F"
O        0.00000000       0.00000000       0.00000000       0.00000000       0.00000000       0.82241213
O        0.00000000       0.00000000       2.06666667       0.00000000       0.00000000      -0.82241213
2
Properties=species:S:1:pos:R:3:forces:R:3 energy=-4.686442623459126 pbc="F F F"
O        0.00000000       0.00000000       0.00000000       0.00000000       0.00000000       0.67735100
O        0.00000000       0.00000000       2.12626263       0.00000000       0.00000000      -0.67735100
2
Properties=species:S:1:pos:R:3:forces:R:3 energy=-4.6455926501073215 pbc="F F F"
O        0.00000000       0.00000000       0.00000000       0.00000000       0.00000000       0.69070548
O        0.00000000       0.00000000       2.18585859       0.00000000       0.00000000      -0.69070548
2
Properties=species:S:1:pos:R:3:forces:R:3 energy=-4.60470363900732 pbc="F F F"
O        0.00000000       0.00000000       0.00000000       0.00000000       0.00000000       0.68663192
O        0.00000000       0.00000000       2.24545455       0.00000000       0.00000000      -0.68663192
2
Properties=species:S:1:pos:R:3:forces:R:3 energy=-4.563622610250505 pbc="F F F"
O        0.00000000       0.00000000       0.00000000       0.00000000       0.00000000       0.68783706
O        0.00000000       0.00000000       2.30505051       0.00000000       0.00000000      -0.68783706
2
Properties=species:S:1:pos:R:3:forces:R:3 energy=-4.523114859045317 pbc="F F F"
O        0.00000000       0.00000000       0.00000000       0.00000000       0.00000000       0.67118156
O        0.00000000       0.00000000       2.36464646       0.00000000       0.00000000      -0.67118156
2
Properties=species:S:1:pos:R:3:forces:R:3 energy=-4.48366433954926 pbc="F F F"
O        0.00000000       0.00000000       0.00000000       0.00000000       0.00000000       0.65080100
O        0.00000000       0.00000000       2.42424242       0.00000000       0.00000000      -0.65080100
2
Properties=species:S:1:pos:R:3:forces:R:3 energy=-4.445711201049678 pbc="F F F"
O        0.00000000       0.00000000       0.00000000       0.00000000       0.00000000       0.62320727
O        0.00000000       0.00000000       2.48383838       0.00000000       0.00000000      -0.62320727
2
Properties=species:S:1:pos:R:3:forces:R:3 energy=-4.409372411282254 pbc="F F F"
O        0.00000000       0.00000000       0.00000000       0.00000000       0.00000000       0.59404874
O        0.00000000       0.00000000       2.54343434       0.00000000       0.00000000      -0.59404874
2
Properties=species:S:1:pos:R:3:forces:R:3 energy=-4.375633893676021 pbc="F F F"
O        0.00000000       0.00000000       0.00000000       0.00000000       0.00000000       0.52973717
O        0.00000000       0.00000000       2.60303030       0.00000000       0.00000000      -0.52973717
2
Properties=species:S:1:pos:R:3:forces:R:3 energy=-4.3470248123169775 pbc="F F F"
O        0.00000000       0.00000000       0.00000000       0.00000000       0.00000000       0.42759228
O        0.00000000       0.00000000       2.66262626       0.00000000       0.00000000      -0.42759228
2
Properties=species:S:1:pos:R:3:forces:R:3 energy=-4.324396090993531 pbc="F F F"
O        0.00000000       0.00000000       0.00000000       0.00000000       0.00000000       0.33804899
O        0.00000000       0.00000000       2.72222222       0.00000000       0.00000000      -0.33804899
2
Properties=species:S:1:pos:R:3:forces:R:3 energy=-4.305871399958847 pbc="F F F"
O        0.00000000       0.00000000       0.00000000       0.00000000       0.00000000       0.29012811
O        0.00000000       0.00000000       2.78181818       0.00000000       0.00000000      -0.29012811
2
Properties=species:S:1:pos:R:3:forces:R:3 energy=-4.289251371258382 pbc="F F F"
O        0.00000000       0.00000000       0.00000000       0.00000000       0.00000000       0.27046365
O        0.00000000       0.00000000       2.84141414       0.00000000       0.00000000      -0.27046365
2
Properties=species:S:1:pos:R:3:forces:R:3 energy=-4.273549034178181 pbc="F F F"
O        0.00000000       0.00000000       0.00000000       0.00000000       0.00000000       0.25564605
O        0.00000000       0.00000000       2.90101010       0.00000000       0.00000000      -0.25564605
2
Properties=species:S:1:pos:R:3:forces:R:3 energy=-4.258950684503597 pbc="F F F"
O        0.00000000       0.00000000       0.00000000       0.00000000       0.00000000       0.23276630
O        0.00000000       0.00000000       2.96060606       0.00000000       0.00000000      -0.23276630
2
Properties=species:S:1:pos:R:3:forces:R:3 energy=-4.245858395505619 pbc="F F F"
O        0.00000000       0.00000000       0.00000000       0.00000000       0.00000000       0.20724981
O        0.00000000       0.00000000       3.02020202       0.00000000       0.00000000      -0.20724981
2
Properties=species:S:1:pos:R:3:forces:R:3 energy=-4.234163261882924 pbc="F F F"
O        0.00000000       0.00000000       0.00000000       0.00000000       0.00000000       0.18570189
O        0.00000000       0.00000000       3.07979798       0.00000000       0.00000000      -0.18570189
2
Properties=species:S:1:pos:R:3:forces:R:3 energy=-4.223685958094263 pbc="F F F"
O        0.00000000       0.00000000       0.00000000       0.00000000       0.00000000       0.16595523
O        0.00000000       0.00000000       3.13939394       0.00000000       0.00000000      -0.16595523
2
Properties=species:S:1:pos:R:3:forces:R:3 energy=-4.214393164615527 pbc="F F F"
O        0.00000000       0.00000000       0.00000000       0.00000000       0.00000000       0.14626007
O        0.00000000       0.00000000       3.19898990       0.00000000       0.00000000      -0.14626007
2
Properties=species:S:1:pos:R:3:forces:R:3 energy=-4.206198179523577 pbc="F F F"
O        0.00000000       0.00000000       0.00000000       0.00000000       0.00000000       0.12923451
O        0.00000000       0.00000000       3.25858586       0.00000000       0.00000000      -0.12923451
2
Properties=species:S:1:pos:R:3:forces:R:3 energy=-4.198884571489909 pbc="F F F"
O        0.00000000       0.00000000       0.00000000       0.00000000       0.00000000       0.11698172
O        0.00000000       0.00000000       3.31818182       0.00000000       0.00000000      -0.11698172
2
Properties=species:S:1:pos:R:3:forces:R:3 energy=-4.192170010623526 pbc="F F F"
O        0.00000000       0.00000000       0.00000000       0.00000000       0.00000000       0.10895298
O        0.00000000       0.00000000       3.37777778       0.00000000       0.00000000      -0.10895298
2
Properties=species:S:1:pos:R:3:forces:R:3 energy=-4.185851175885892 pbc="F F F"
O        0.00000000       0.00000000       0.00000000       0.00000000       0.00000000       0.10349163
O        0.00000000       0.00000000       3.43737374       0.00000000       0.00000000      -0.10349163
2
Properties=species:S:1:pos:R:3:forces:R:3 energy=-4.179808479904965 pbc="F F F"
O        0.00000000       0.00000000       0.00000000       0.00000000       0.00000000       0.09950423
O        0.00000000       0.00000000       3.49696970       0.00000000       0.00000000      -0.09950423
2
Properties=species:S:1:pos:R:3:forces:R:3 energy=-4.1739707557030234 pbc="F F F"
O        0.00000000       0.00000000       0.00000000       0.00000000       0.00000000       0.09651028
O        0.00000000       0.00000000       3.55656566       0.00000000       0.00000000      -0.09651028
2
Properties=species:S:1:pos:R:3:forces:R:3 energy=-4.1683018977326585 pbc="F F F"
O        0.00000000       0.00000000       0.00000000       0.00000000       0.00000000       0.09372118
O        0.00000000       0.00000000       3.61616162       0.00000000       0.00000000      -0.09372118
2
Properties=species:S:1:pos:R:3:forces:R:3 energy=-4.162825638006087 pbc="F F F"
O        0.00000000       0.00000000       0.00000000       0.00000000       0.00000000       0.08969291
O        0.00000000       0.00000000       3.67575758       0.00000000       0.00000000      -0.08969291
2
Properties=species:S:1:pos:R:3:forces:R:3 energy=-4.157661805716057 pbc="F F F"
O        0.00000000       0.00000000       0.00000000       0.00000000       0.00000000       0.08295797
O        0.00000000       0.00000000       3.73535354       0.00000000       0.00000000      -0.08295797
2
Properties=species:S:1:pos:R:3:forces:R:3 energy=-4.153003448357729 pbc="F F F"
O        0.00000000       0.00000000       0.00000000       0.00000000       0.00000000       0.07287718
O        0.00000000       0.00000000       3.79494949       0.00000000       0.00000000      -0.07287718
2
Properties=species:S:1:pos:R:3:forces:R:3 energy=-4.149031977483236 pbc="F F F"
O        0.00000000       0.00000000       0.00000000       0.00000000       0.00000000       0.05998687
O        0.00000000       0.00000000       3.85454545       0.00000000       0.00000000      -0.05998687
2
Properties=species:S:1:pos:R:3:forces:R:3 energy=-4.145881904926736 pbc="F F F"
O        0.00000000       0.00000000       0.00000000       0.00000000       0.00000000       0.04567868
O        0.00000000       0.00000000       3.91414141       0.00000000       0.00000000      -0.04567868
2
Properties=species:S:1:pos:R:3:forces:R:3 energy=-4.143581742715235 pbc="F F F"
O        0.00000000       0.00000000       0.00000000       0.00000000       0.00000000       0.03154031
O        0.00000000       0.00000000       3.97373737       0.00000000       0.00000000      -0.03154031
2
Properties=species:S:1:pos:R:3:forces:R:3 energy=-4.142089314558859 pbc="F F F"
O        0.00000000       0.00000000       0.00000000       0.00000000       0.00000000       0.01880026
O        0.00000000       0.00000000       4.03333333       0.00000000       0.00000000      -0.01880026
2
Properties=species:S:1:pos:R:3:forces:R:3 energy=-4.141301315164756 pbc="F F F"
O        0.00000000       0.00000000       0.00000000       0.00000000       0.00000000       0.00810718
O        0.00000000       0.00000000       4.09292929       0.00000000       0.00000000      -0.00810718
2
Properties=species:S:1:pos:R:3:forces:R:3 energy=-4.141084805446187 pbc="F F F"
O        0.00000000       0.00000000       0.00000000       0.00000000       0.00000000      -0.00042167
O        0.00000000       0.00000000       4.15252525       0.00000000       0.00000000       0.00042167
2
Properties=species:S:1:pos:R:3:forces:R:3 energy=-4.141313471153485 pbc="F F F"
O        0.00000000       0.00000000       0.00000000       0.00000000       0.00000000      -0.00703869
O        0.00000000       0.00000000       4.21212121       0.00000000       0.00000000       0.00703869
2
Properties=species:S:1:pos:R:3:forces:R:3 energy=-4.141899110559575 pbc="F F F"
O        0.00000000       0.00000000       0.00000000       0.00000000       0.00000000      -0.01219612
O        0.00000000       0.00000000       4.27171717       0.00000000       0.00000000       0.01219612
2
Properties=species:S:1:pos:R:3:forces:R:3 energy=-4.142748734954842 pbc="F F F"
O        0.00000000       0.00000000       0.00000000       0.00000000       0.00000000      -0.01639090
O        0.00000000       0.00000000       4.33131313       0.00000000       0.00000000       0.01639090
2
Properties=species:S:1:pos:R:3:forces:R:3 energy=-4.143840871402954 pbc="F F F"
O        0.00000000       0.00000000       0.00000000       0.00000000       0.00000000      -0.02003440
O        0.00000000       0.00000000       4.39090909       0.00000000       0.00000000       0.02003440
2
Properties=species:S:1:pos:R:3:forces:R:3 energy=-4.145133069003457 pbc="F F F"
O        0.00000000       0.00000000       0.00000000       0.00000000       0.00000000      -0.02334581
O        0.00000000       0.00000000       4.45050505       0.00000000       0.00000000       0.02334581
2
Properties=species:S:1:pos:R:3:forces:R:3 energy=-4.146611495796897 pbc="F F F"
O        0.00000000       0.00000000       0.00000000       0.00000000       0.00000000      -0.02630830
O        0.00000000       0.00000000       4.51010101       0.00000000       0.00000000       0.02630830
2
Properties=species:S:1:pos:R:3:forces:R:3 energy=-4.14825279377206 pbc="F F F"
O        0.00000000       0.00000000       0.00000000       0.00000000       0.00000000      -0.02869941
O        0.00000000       0.00000000       4.56969697       0.00000000       0.00000000       0.02869941
2
Properties=species:S:1:pos:R:3:forces:R:3 energy=-4.150019321185782 pbc="F F F"
O        0.00000000       0.00000000       0.00000000       0.00000000       0.00000000      -0.03019550
O        0.00000000       0.00000000       4.62929293       0.00000000       0.00000000       0.03019550
2
Properties=species:S:1:pos:R:3:forces:R:3 energy=-4.151832446613269 pbc="F F F"
O        0.00000000       0.00000000       0.00000000       0.00000000       0.00000000      -0.03051235
O        0.00000000       0.00000000       4.68888889       0.00000000       0.00000000       0.03051235
2
Properties=species:S:1:pos:R:3:forces:R:3 energy=-4.1536288220684 pbc="F F F"
O        0.00000000       0.00000000       0.00000000       0.00000000       0.00000000      -0.02952960
O        0.00000000       0.00000000       4.74848485       0.00000000       0.00000000       0.02952960
2
Properties=species:S:1:pos:R:3:forces:R:3 energy=-4.155326998858975 pbc="F F F"
O        0.00000000       0.00000000       0.00000000       0.00000000       0.00000000      -0.02734937
O        0.00000000       0.00000000       4.80808081       0.00000000       0.00000000       0.02734937
2
Properties=species:S:1:pos:R:3:forces:R:3 energy=-4.156867490124535 pbc="F F F"
O        0.00000000       0.00000000       0.00000000       0.00000000       0.00000000      -0.02427682
O        0.00000000       0.00000000       4.86767677       0.00000000       0.00000000       0.02427682
2
Properties=species:S:1:pos:R:3:forces:R:3 energy=-4.1582089510408835 pbc="F F F"
O        0.00000000       0.00000000       0.00000000       0.00000000       0.00000000      -0.02073079
O        0.00000000       0.00000000       4.92727273       0.00000000       0.00000000       0.02073079
2
Properties=species:S:1:pos:R:3:forces:R:3 energy=-4.159339623208872 pbc="F F F"
O        0.00000000       0.00000000       0.00000000       0.00000000       0.00000000      -0.01713229
O        0.00000000       0.00000000       4.98686869       0.00000000       0.00000000       0.01713229
2
Properties=species:S:1:pos:R:3:forces:R:3 energy=-4.160257308038219 pbc="F F F"
O        0.00000000       0.00000000       0.00000000       0.00000000       0.00000000      -0.01380969
O        0.00000000       0.00000000       5.04646465       0.00000000       0.00000000       0.01380969
2
Properties=species:S:1:pos:R:3:forces:R:3 energy=-4.160994158616942 pbc="F F F"
O        0.00000000       0.00000000       0.00000000       0.00000000       0.00000000      -0.01095106
O        0.00000000       0.00000000       5.10606061       0.00000000       0.00000000       0.01095106
2
Properties=species:S:1:pos:R:3:forces:R:3 energy=-4.1615766279144335 pbc="F F F"
O        0.00000000       0.00000000       0.00000000       0.00000000       0.00000000      -0.00860595
O        0.00000000       0.00000000       5.16565657       0.00000000       0.00000000       0.00860595
2
Properties=species:S:1:pos:R:3:forces:R:3 energy=-4.1620302337377275 pbc="F F F"
O        0.00000000       0.00000000       0.00000000       0.00000000       0.00000000      -0.00672444
O        0.00000000       0.00000000       5.22525253       0.00000000       0.00000000       0.00672444
2
Properties=species:S:1:pos:R:3:forces:R:3 energy=-4.162381464446726 pbc="F F F"
O        0.00000000       0.00000000       0.00000000       0.00000000       0.00000000      -0.00521009
O        0.00000000       0.00000000       5.28484848       0.00000000       0.00000000       0.00521009
2
Properties=species:S:1:pos:R:3:forces:R:3 energy=-4.16265396544487 pbc="F F F"
O        0.00000000       0.00000000       0.00000000       0.00000000       0.00000000      -0.00396489
O        0.00000000       0.00000000       5.34444444       0.00000000       0.00000000       0.00396489
2
Properties=species:S:1:pos:R:3:forces:R:3 energy=-4.162858998797926 pbc="F F F"
O        0.00000000       0.00000000       0.00000000       0.00000000       0.00000000      -0.00291649
O        0.00000000       0.00000000       5.40404040       0.00000000       0.00000000       0.00291649
2
Properties=species:S:1:pos:R:3:forces:R:3 energy=-4.163006887993996 pbc="F F F"
O        0.00000000       0.00000000       0.00000000       0.00000000       0.00000000      -0.00202715
O        0.00000000       0.00000000       5.46363636       0.00000000       0.00000000       0.00202715
2
Properties=species:S:1:pos:R:3:forces:R:3 energy=-4.163104154668446 pbc="F F F"
O        0.00000000       0.00000000       0.00000000       0.00000000       0.00000000      -0.00128694
O        0.00000000       0.00000000       5.52323232       0.00000000       0.00000000       0.00128694
2
Properties=species:S:1:pos:R:3:forces:R:3 energy=-4.163164962868941 pbc="F F F"
O        0.00000000       0.00000000       0.00000000       0.00000000       0.00000000      -0.00070031
O        0.00000000       0.00000000       5.58282828       0.00000000       0.00000000       0.00070031
2
Properties=species:S:1:pos:R:3:forces:R:3 energy=-4.163191089494189 pbc="F F F"
O        0.00000000       0.00000000       0.00000000       0.00000000       0.00000000      -0.00027072
O        0.00000000       0.00000000       5.64242424       0.00000000       0.00000000       0.00027072
2
Properties=species:S:1:pos:R:3:forces:R:3 energy=-4.163197673945955 pbc="F F F"
O        0.00000000       0.00000000       0.00000000       0.00000000       0.00000000       0.00000994
O        0.00000000       0.00000000       5.70202020       0.00000000       0.00000000      -0.00000994
2
Properties=species:S:1:pos:R:3:forces:R:3 energy=-4.1631931893350105 pbc="F F F"
O        0.00000000       0.00000000       0.00000000       0.00000000       0.00000000       0.00016497
O        0.00000000       0.00000000       5.76161616       0.00000000       0.00000000      -0.00016497
2
Properties=species:S:1:pos:R:3:forces:R:3 energy=-4.163181349260546 pbc="F F F"
O        0.00000000       0.00000000       0.00000000       0.00000000       0.00000000       0.00022989
O        0.00000000       0.00000000       5.82121212       0.00000000       0.00000000      -0.00022989
2
Properties=species:S:1:pos:R:3:forces:R:3 energy=-4.163166829262106 pbc="F F F"
O        0.00000000       0.00000000       0.00000000       0.00000000       0.00000000       0.00024249
O        0.00000000       0.00000000       5.88080808       0.00000000       0.00000000      -0.00024249
2
Properties=species:S:1:pos:R:3:forces:R:3 energy=-4.1631543122048225 pbc="F F F"
O        0.00000000       0.00000000       0.00000000       0.00000000       0.00000000       0.00023297
O        0.00000000       0.00000000       5.94040404       0.00000000       0.00000000      -0.00023297
2
Properties=species:S:1:pos:R:3:forces:R:3 energy=-4.163137997515456 pbc="F F F"
O        0.00000000       0.00000000       0.00000000       0.00000000       0.00000000       0.00021801
O        0.00000000       0.00000000       6.00000000       0.00000000       0.00000000      -0.00021801
