2
Properties=species:S:1:pos:R:3:forces:R:3 energy=292087935.9576041 pbc="F F F"
Os       0.00000000       0.00000000       0.00000000       0.00000000       0.00000000 -1475986048.00000000
Os       0.00000000       0.00000000       0.10000000       0.00000000       0.00000000 1475986048.00000000
2
Properties=species:S:1:pos:R:3:forces:R:3 energy=197811279.9576041 pbc="F F F"
Os       0.00000000       0.00000000       0.00000000       0.00000000       0.00000000 -1587375744.00000000
Os       0.00000000       0.00000000       0.15959596       0.00000000       0.00000000 1587375744.00000000
2
Properties=species:S:1:pos:R:3:forces:R:3 energy=112065087.95760411 pbc="F F F"
Os       0.00000000       0.00000000       0.00000000       0.00000000       0.00000000 -1241090944.00000000
Os       0.00000000       0.00000000       0.21919192       0.00000000       0.00000000 1241090944.00000000
2
Properties=species:S:1:pos:R:3:forces:R:3 energy=52613555.95760412 pbc="F F F"
Os       0.00000000       0.00000000       0.00000000       0.00000000       0.00000000 -753949056.00000000
Os       0.00000000       0.00000000       0.27878788       0.00000000       0.00000000 753949056.00000000
2
Properties=species:S:1:pos:R:3:forces:R:3 energy=20245039.957604125 pbc="F F F"
Os       0.00000000       0.00000000       0.00000000       0.00000000       0.00000000 -361440576.00000000
Os       0.00000000       0.00000000       0.33838384       0.00000000       0.00000000 361440576.00000000
2
Properties=species:S:1:pos:R:3:forces:R:3 energy=5828286.957604124 pbc="F F F"
Os       0.00000000       0.00000000       0.00000000       0.00000000       0.00000000 -139778896.00000000
Os       0.00000000       0.00000000       0.39797980       0.00000000       0.00000000 139778896.00000000
2
Properties=species:S:1:pos:R:3:forces:R:3 energy=1118394.2076041303 pbc="F F F"
Os       0.00000000       0.00000000       0.00000000       0.00000000       0.00000000 -36437328.00000000
Os       0.00000000       0.00000000       0.45757576       0.00000000       0.00000000 36437328.00000000
2
Properties=species:S:1:pos:R:3:forces:R:3 energy=103399.33260414287 pbc="F F F"
Os       0.00000000       0.00000000       0.00000000       0.00000000       0.00000000 -5086354.00000000
Os       0.00000000       0.00000000       0.51717172       0.00000000       0.00000000 5086354.00000000
2
Properties=species:S:1:pos:R:3:forces:R:3 energy=25.388998745237053 pbc="F F F"
Os       0.00000000       0.00000000       0.00000000       0.00000000       0.00000000  111867.50781250
Os       0.00000000       0.00000000       0.57676768       0.00000000       0.00000000 -111867.50781250
2
Properties=species:S:1:pos:R:3:forces:R:3 energy=1611.3854606483692 pbc="F F F"
Os       0.00000000       0.00000000       0.00000000       0.00000000       0.00000000  -37152.10156250
Os       0.00000000       0.00000000       0.63636364       0.00000000       0.00000000   37152.10156250
2
Properties=species:S:1:pos:R:3:forces:R:3 energy=489.5253838074288 pbc="F F F"
Os       0.00000000       0.00000000       0.00000000       0.00000000       0.00000000   -8062.44628906
Os       0.00000000       0.00000000       0.69595960       0.00000000       0.00000000    8062.44628906
2
Properties=species:S:1:pos:R:3:forces:R:3 energy=233.0107202061744 pbc="F F F"
Os       0.00000000       0.00000000       0.00000000       0.00000000       0.00000000   -2091.36523438
Os       0.00000000       0.00000000       0.75555556       0.00000000       0.00000000    2091.36523438
2
Properties=species:S:1:pos:R:3:forces:R:3 energy=168.8770991329061 pbc="F F F"
Os       0.00000000       0.00000000       0.00000000       0.00000000       0.00000000      91.01325989
Os       0.00000000       0.00000000       0.81515152       0.00000000       0.00000000     -91.01325989
2
Properties=species:S:1:pos:R:3:forces:R:3 energy=126.12345248506077 pbc="F F F"
Os       0.00000000       0.00000000       0.00000000       0.00000000       0.00000000    -574.16595459
Os       0.00000000       0.00000000       0.87474747       0.00000000       0.00000000     574.16595459
2
Properties=species:S:1:pos:R:3:forces:R:3 energy=122.75344240052384 pbc="F F F"
Os       0.00000000       0.00000000       0.00000000       0.00000000       0.00000000     707.74768066
Os       0.00000000       0.00000000       0.93434343       0.00000000       0.00000000    -707.74768066
2
Properties=species:S:1:pos:R:3:forces:R:3 energy=163.04633525889193 pbc="F F F"
Os       0.00000000       0.00000000       0.00000000       0.00000000       0.00000000     972.81036377
Os       0.00000000       0.00000000       0.99393939       0.00000000       0.00000000    -972.81036377
2
Properties=species:S:1:pos:R:3:forces:R:3 energy=157.68944798637455 pbc="F F F"
Os       0.00000000       0.00000000       0.00000000       0.00000000       0.00000000    -752.74755859
Os       0.00000000       0.00000000       1.05353535       0.00000000       0.00000000     752.74755859
2
Properties=species:S:1:pos:R:3:forces:R:3 energy=105.94072282386034 pbc="F F F"
Os       0.00000000       0.00000000       0.00000000       0.00000000       0.00000000    -877.91278076
Os       0.00000000       0.00000000       1.11313131       0.00000000       0.00000000     877.91278076
2
Properties=species:S:1:pos:R:3:forces:R:3 energy=61.066410426050446 pbc="F F F"
Os       0.00000000       0.00000000       0.00000000       0.00000000       0.00000000    -591.84143066
Os       0.00000000       0.00000000       1.17272727       0.00000000       0.00000000     591.84143066
2
Properties=species:S:1:pos:R:3:forces:R:3 energy=34.3171440992152 pbc="F F F"
Os       0.00000000       0.00000000       0.00000000       0.00000000       0.00000000    -328.75369263
Os       0.00000000       0.00000000       1.23232323       0.00000000       0.00000000     328.75369263
2
Properties=species:S:1:pos:R:3:forces:R:3 energy=19.57248055625918 pbc="F F F"
Os       0.00000000       0.00000000       0.00000000       0.00000000       0.00000000    -177.53533936
Os       0.00000000       0.00000000       1.29191919       0.00000000       0.00000000     177.53533936
2
Properties=species:S:1:pos:R:3:forces:R:3 energy=11.039954666417016 pbc="F F F"
Os       0.00000000       0.00000000       0.00000000       0.00000000       0.00000000    -115.60755157
Os       0.00000000       0.00000000       1.35151515       0.00000000       0.00000000     115.60755157
2
Properties=species:S:1:pos:R:3:forces:R:3 energy=5.137865246036842 pbc="F F F"
Os       0.00000000       0.00000000       0.00000000       0.00000000       0.00000000     -84.35323334
Os       0.00000000       0.00000000       1.41111111       0.00000000       0.00000000      84.35323334
2
Properties=species:S:1:pos:R:3:forces:R:3 energy=0.8747516026537154 pbc="F F F"
Os       0.00000000       0.00000000       0.00000000       0.00000000       0.00000000     -58.21013260
Os       0.00000000       0.00000000       1.47070707       0.00000000       0.00000000      58.21013260
2
Properties=species:S:1:pos:R:3:forces:R:3 energy=-1.8770087635643506 pbc="F F F"
Os       0.00000000       0.00000000       0.00000000       0.00000000       0.00000000     -36.63651657
Os       0.00000000       0.00000000       1.53030303       0.00000000       0.00000000      36.63651657
2
Properties=species:S:1:pos:R:3:forces:R:3 energy=-3.643580696435526 pbc="F F F"
Os       0.00000000       0.00000000       0.00000000       0.00000000       0.00000000     -23.69602776
Os       0.00000000       0.00000000       1.58989899       0.00000000       0.00000000      23.69602776
2
Properties=species:S:1:pos:R:3:forces:R:3 energy=-4.864517339553615 pbc="F F F"
Os       0.00000000       0.00000000       0.00000000       0.00000000       0.00000000     -18.08410835
Os       0.00000000       0.00000000       1.64949495       0.00000000       0.00000000      18.08410835
2
Properties=species:S:1:pos:R:3:forces:R:3 energy=-5.860222574590595 pbc="F F F"
Os       0.00000000       0.00000000       0.00000000       0.00000000       0.00000000     -15.31359863
Os       0.00000000       0.00000000       1.70909091       0.00000000       0.00000000      15.31359863
2
Properties=species:S:1:pos:R:3:forces:R:3 energy=-6.697435382512585 pbc="F F F"
Os       0.00000000       0.00000000       0.00000000       0.00000000       0.00000000     -13.27020073
Os       0.00000000       0.00000000       1.76868687       0.00000000       0.00000000      13.27020073
2
Properties=species:S:1:pos:R:3:forces:R:3 energy=-7.492074838464897 pbc="F F F"
Os       0.00000000       0.00000000       0.00000000       0.00000000       0.00000000     -13.29877186
Os       0.00000000       0.00000000       1.82828283       0.00000000       0.00000000      13.29877186
2
Properties=species:S:1:pos:R:3:forces:R:3 energy=-8.238773786939861 pbc="F F F"
Os       0.00000000       0.00000000       0.00000000       0.00000000       0.00000000     -11.71467495
Os       0.00000000       0.00000000       1.88787879       0.00000000       0.00000000      11.71467495
2
Properties=species:S:1:pos:R:3:forces:R:3 energy=-8.866700475950935 pbc="F F F"
Os       0.00000000       0.00000000       0.00000000       0.00000000       0.00000000      -9.09427452
Os       0.00000000       0.00000000       1.94747475       0.00000000       0.00000000       9.09427452
2
Properties=species:S:1:pos:R:3:forces:R:3 energy=-9.325029003707796 pbc="F F F"
Os       0.00000000       0.00000000       0.00000000       0.00000000       0.00000000      -6.47661734
Os       0.00000000       0.00000000       2.00707071       0.00000000       0.00000000       6.47661734
2
Properties=species:S:1:pos:R:3:forces:R:3 energy=-9.647852653166606 pbc="F F F"
Os       0.00000000       0.00000000       0.00000000       0.00000000       0.00000000      -4.36197472
Os       0.00000000       0.00000000       2.06666667       0.00000000       0.00000000       4.36197472
2
Properties=species:S:1:pos:R:3:forces:R:3 energy=-9.855596519948213 pbc="F F F"
Os       0.00000000       0.00000000       0.00000000       0.00000000       0.00000000      -2.68356442
Os       0.00000000       0.00000000       2.12626263       0.00000000       0.00000000       2.68356442
2
Properties=species:S:1:pos:R:3:forces:R:3 energy=-9.970890736765437 pbc="F F F"
Os       0.00000000       0.00000000       0.00000000       0.00000000       0.00000000      -1.22041667
Os       0.00000000       0.00000000       2.18585859       0.00000000       0.00000000       1.22041667
2
Properties=species:S:1:pos:R:3:forces:R:3 energy=-10.004428145225754 pbc="F F F"
Os       0.00000000       0.00000000       0.00000000       0.00000000       0.00000000       0.09287798
Os       0.00000000       0.00000000       2.24545455       0.00000000       0.00000000      -0.09287798
2
Properties=species:S:1:pos:R:3:forces:R:3 energy=-9.960078419886822 pbc="F F F"
Os       0.00000000       0.00000000       0.00000000       0.00000000       0.00000000       1.37612653
Os       0.00000000       0.00000000       2.30505051       0.00000000       0.00000000      -1.37612653
2
Properties=species:S:1:pos:R:3:forces:R:3 energy=-9.844524785025424 pbc="F F F"
Os       0.00000000       0.00000000       0.00000000       0.00000000       0.00000000       2.45474195
Os       0.00000000       0.00000000       2.36464646       0.00000000       0.00000000      -2.45474195
2
Properties=species:S:1:pos:R:3:forces:R:3 energy=-9.673885178052219 pbc="F F F"
Os       0.00000000       0.00000000       0.00000000       0.00000000       0.00000000       3.22191310
Os       0.00000000       0.00000000       2.42424242       0.00000000       0.00000000      -3.22191310
2
Properties=species:S:1:pos:R:3:forces:R:3 energy=-9.465507952815644 pbc="F F F"
Os       0.00000000       0.00000000       0.00000000       0.00000000       0.00000000       3.73044968
Os       0.00000000       0.00000000       2.48383838       0.00000000       0.00000000      -3.73044968
2
Properties=species:S:1:pos:R:3:forces:R:3 energy=-9.234526509291834 pbc="F F F"
Os       0.00000000       0.00000000       0.00000000       0.00000000       0.00000000       3.97408986
Os       0.00000000       0.00000000       2.54343434       0.00000000       0.00000000      -3.97408986
2
Properties=species:S:1:pos:R:3:forces:R:3 energy=-8.997636099831789 pbc="F F F"
Os       0.00000000       0.00000000       0.00000000       0.00000000       0.00000000       3.92673469
Os       0.00000000       0.00000000       2.60303030       0.00000000       0.00000000      -3.92673469
2
Properties=species:S:1:pos:R:3:forces:R:3 energy=-8.771607059025259 pbc="F F F"
Os       0.00000000       0.00000000       0.00000000       0.00000000       0.00000000       3.62744427
Os       0.00000000       0.00000000       2.66262626       0.00000000       0.00000000      -3.62744427
2
Properties=species:S:1:pos:R:3:forces:R:3 energy=-8.567156247546647 pbc="F F F"
Os       0.00000000       0.00000000       0.00000000       0.00000000       0.00000000       3.23127460
Os       0.00000000       0.00000000       2.72222222       0.00000000       0.00000000      -3.23127460
2
Properties=species:S:1:pos:R:3:forces:R:3 energy=-8.38587584170702 pbc="F F F"
Os       0.00000000       0.00000000       0.00000000       0.00000000       0.00000000       2.86154771
Os       0.00000000       0.00000000       2.78181818       0.00000000       0.00000000      -2.86154771
2
Properties=species:S:1:pos:R:3:forces:R:3 energy=-8.224815384257088 pbc="F F F"
Os       0.00000000       0.00000000       0.00000000       0.00000000       0.00000000       2.55444145
Os       0.00000000       0.00000000       2.84141414       0.00000000       0.00000000      -2.55444145
2
Properties=species:S:1:pos:R:3:forces:R:3 energy=-8.080262254667987 pbc="F F F"
Os       0.00000000       0.00000000       0.00000000       0.00000000       0.00000000       2.30501938
Os       0.00000000       0.00000000       2.90101010       0.00000000       0.00000000      -2.30501938
2
Properties=species:S:1:pos:R:3:forces:R:3 energy=-7.949138540322739 pbc="F F F"
Os       0.00000000       0.00000000       0.00000000       0.00000000       0.00000000       2.10333323
Os       0.00000000       0.00000000       2.96060606       0.00000000       0.00000000      -2.10333323
2
Properties=species:S:1:pos:R:3:forces:R:3 energy=-7.828563934995351 pbc="F F F"
Os       0.00000000       0.00000000       0.00000000       0.00000000       0.00000000       1.95132661
Os       0.00000000       0.00000000       3.02020202       0.00000000       0.00000000      -1.95132661
2
Properties=species:S:1:pos:R:3:forces:R:3 energy=-7.71574121916096 pbc="F F F"
Os       0.00000000       0.00000000       0.00000000       0.00000000       0.00000000       1.83973789
Os       0.00000000       0.00000000       3.07979798       0.00000000       0.00000000      -1.83973789
2
Properties=species:S:1:pos:R:3:forces:R:3 energy=-7.60896972095453 pbc="F F F"
Os       0.00000000       0.00000000       0.00000000       0.00000000       0.00000000       1.74457002
Os       0.00000000       0.00000000       3.13939394       0.00000000       0.00000000      -1.74457002
2
Properties=species:S:1:pos:R:3:forces:R:3 energy=-7.507706624921906 pbc="F F F"
Os       0.00000000       0.00000000       0.00000000       0.00000000       0.00000000       1.65445244
Os       0.00000000       0.00000000       3.19898990       0.00000000       0.00000000      -1.65445244
2
Properties=species:S:1:pos:R:3:forces:R:3 energy=-7.411647333234944 pbc="F F F"
Os       0.00000000       0.00000000       0.00000000       0.00000000       0.00000000       1.57035029
Os       0.00000000       0.00000000       3.25858586       0.00000000       0.00000000      -1.57035029
2
Properties=species:S:1:pos:R:3:forces:R:3 energy=-7.320445573098068 pbc="F F F"
Os       0.00000000       0.00000000       0.00000000       0.00000000       0.00000000       1.49074590
Os       0.00000000       0.00000000       3.31818182       0.00000000       0.00000000      -1.49074590
2
Properties=species:S:1:pos:R:3:forces:R:3 energy=-7.233946833592759 pbc="F F F"
Os       0.00000000       0.00000000       0.00000000       0.00000000       0.00000000       1.41204274
Os       0.00000000       0.00000000       3.37777778       0.00000000       0.00000000      -1.41204274
2
Properties=species:S:1:pos:R:3:forces:R:3 energy=-7.152166633589196 pbc="F F F"
Os       0.00000000       0.00000000       0.00000000       0.00000000       0.00000000       1.33210778
Os       0.00000000       0.00000000       3.43737374       0.00000000       0.00000000      -1.33210778
2
Properties=species:S:1:pos:R:3:forces:R:3 energy=-7.075205134552879 pbc="F F F"
Os       0.00000000       0.00000000       0.00000000       0.00000000       0.00000000       1.25046027
Os       0.00000000       0.00000000       3.49696970       0.00000000       0.00000000      -1.25046027
2
Properties=species:S:1:pos:R:3:forces:R:3 energy=-7.003157748584656 pbc="F F F"
Os       0.00000000       0.00000000       0.00000000       0.00000000       0.00000000       1.16697919
Os       0.00000000       0.00000000       3.55656566       0.00000000       0.00000000      -1.16697919
2
Properties=species:S:1:pos:R:3:forces:R:3 energy=-6.936163845502955 pbc="F F F"
Os       0.00000000       0.00000000       0.00000000       0.00000000       0.00000000       1.08075452
Os       0.00000000       0.00000000       3.61616162       0.00000000       0.00000000      -1.08075452
2
Properties=species:S:1:pos:R:3:forces:R:3 energy=-6.8744230191601305 pbc="F F F"
Os       0.00000000       0.00000000       0.00000000       0.00000000       0.00000000       0.99040020
Os       0.00000000       0.00000000       3.67575758       0.00000000       0.00000000      -0.99040020
2
Properties=species:S:1:pos:R:3:forces:R:3 energy=-6.8182084927358755 pbc="F F F"
Os       0.00000000       0.00000000       0.00000000       0.00000000       0.00000000       0.89546371
Os       0.00000000       0.00000000       3.73535354       0.00000000       0.00000000      -0.89546371
2
Properties=species:S:1:pos:R:3:forces:R:3 energy=-6.76775465802779 pbc="F F F"
Os       0.00000000       0.00000000       0.00000000       0.00000000       0.00000000       0.79737234
Os       0.00000000       0.00000000       3.79494949       0.00000000       0.00000000      -0.79737234
2
Properties=species:S:1:pos:R:3:forces:R:3 energy=-6.723171222588155 pbc="F F F"
Os       0.00000000       0.00000000       0.00000000       0.00000000       0.00000000       0.69917661
Os       0.00000000       0.00000000       3.85454545       0.00000000       0.00000000      -0.69917661
2
Properties=species:S:1:pos:R:3:forces:R:3 energy=-6.684350826860301 pbc="F F F"
Os       0.00000000       0.00000000       0.00000000       0.00000000       0.00000000       0.60441619
Os       0.00000000       0.00000000       3.91414141       0.00000000       0.00000000      -0.60441619
2
Properties=species:S:1:pos:R:3:forces:R:3 energy=-6.651001453266259 pbc="F F F"
Os       0.00000000       0.00000000       0.00000000       0.00000000       0.00000000       0.51599139
Os       0.00000000       0.00000000       3.97373737       0.00000000       0.00000000      -0.51599139
2
Properties=species:S:1:pos:R:3:forces:R:3 energy=-6.622684655542785 pbc="F F F"
Os       0.00000000       0.00000000       0.00000000       0.00000000       0.00000000       0.43569738
Os       0.00000000       0.00000000       4.03333333       0.00000000       0.00000000      -0.43569738
2
Properties=species:S:1:pos:R:3:forces:R:3 energy=-6.5988918653579685 pbc="F F F"
Os       0.00000000       0.00000000       0.00000000       0.00000000       0.00000000       0.36440146
Os       0.00000000       0.00000000       4.09292929       0.00000000       0.00000000      -0.36440146
2
Properties=species:S:1:pos:R:3:forces:R:3 energy=-6.579072080544629 pbc="F F F"
Os       0.00000000       0.00000000       0.00000000       0.00000000       0.00000000       0.30241936
Os       0.00000000       0.00000000       4.15252525       0.00000000       0.00000000      -0.30241936
2
Properties=species:S:1:pos:R:3:forces:R:3 energy=-6.562659566004996 pbc="F F F"
Os       0.00000000       0.00000000       0.00000000       0.00000000       0.00000000       0.24971114
Os       0.00000000       0.00000000       4.21212121       0.00000000       0.00000000      -0.24971114
2
Properties=species:S:1:pos:R:3:forces:R:3 energy=-6.549129128807203 pbc="F F F"
Os       0.00000000       0.00000000       0.00000000       0.00000000       0.00000000       0.20589183
Os       0.00000000       0.00000000       4.27171717       0.00000000       0.00000000      -0.20589183
2
Properties=species:S:1:pos:R:3:forces:R:3 energy=-6.537959891232545 pbc="F F F"
Os       0.00000000       0.00000000       0.00000000       0.00000000       0.00000000       0.17023021
Os       0.00000000       0.00000000       4.33131313       0.00000000       0.00000000      -0.17023021
2
Properties=species:S:1:pos:R:3:forces:R:3 energy=-6.5286963481064895 pbc="F F F"
Os       0.00000000       0.00000000       0.00000000       0.00000000       0.00000000       0.14171784
Os       0.00000000       0.00000000       4.39090909       0.00000000       0.00000000      -0.14171784
2
Properties=species:S:1:pos:R:3:forces:R:3 energy=-6.520948293938765 pbc="F F F"
Os       0.00000000       0.00000000       0.00000000       0.00000000       0.00000000       0.11921291
Os       0.00000000       0.00000000       4.45050505       0.00000000       0.00000000      -0.11921291
2
Properties=species:S:1:pos:R:3:forces:R:3 energy=-6.514387939725652 pbc="F F F"
Os       0.00000000       0.00000000       0.00000000       0.00000000       0.00000000       0.10158281
Os       0.00000000       0.00000000       4.51010101       0.00000000       0.00000000      -0.10158281
2
Properties=species:S:1:pos:R:3:forces:R:3 energy=-6.508764110358786 pbc="F F F"
Os       0.00000000       0.00000000       0.00000000       0.00000000       0.00000000       0.08781903
Os       0.00000000       0.00000000       4.56969697       0.00000000       0.00000000      -0.08781903
2
Properties=species:S:1:pos:R:3:forces:R:3 energy=-6.503862221982081 pbc="F F F"
Os       0.00000000       0.00000000       0.00000000       0.00000000       0.00000000       0.07708892
Os       0.00000000       0.00000000       4.62929293       0.00000000       0.00000000      -0.07708892
2
Properties=species:S:1:pos:R:3:forces:R:3 energy=-6.499524122250873 pbc="F F F"
Os       0.00000000       0.00000000       0.00000000       0.00000000       0.00000000       0.06873715
Os       0.00000000       0.00000000       4.68888889       0.00000000       0.00000000      -0.06873715
2
Properties=species:S:1:pos:R:3:forces:R:3 energy=-6.495629983191191 pbc="F F F"
Os       0.00000000       0.00000000       0.00000000       0.00000000       0.00000000       0.06225524
Os       0.00000000       0.00000000       4.74848485       0.00000000       0.00000000      -0.06225524
2
Properties=species:S:1:pos:R:3:forces:R:3 energy=-6.492075200772086 pbc="F F F"
Os       0.00000000       0.00000000       0.00000000       0.00000000       0.00000000       0.05725342
Os       0.00000000       0.00000000       4.80808081       0.00000000       0.00000000      -0.05725342
2
Properties=species:S:1:pos:R:3:forces:R:3 energy=-6.488783816038144 pbc="F F F"
Os       0.00000000       0.00000000       0.00000000       0.00000000       0.00000000       0.05344092
Os       0.00000000       0.00000000       4.86767677       0.00000000       0.00000000      -0.05344092
2
Properties=species:S:1:pos:R:3:forces:R:3 energy=-6.485689248386008 pbc="F F F"
Os       0.00000000       0.00000000       0.00000000       0.00000000       0.00000000       0.05061551
Os       0.00000000       0.00000000       4.92727273       0.00000000       0.00000000      -0.05061551
2
Properties=species:S:1:pos:R:3:forces:R:3 energy=-6.482731383856272 pbc="F F F"
Os       0.00000000       0.00000000       0.00000000       0.00000000       0.00000000       0.04864018
Os       0.00000000       0.00000000       4.98686869       0.00000000       0.00000000      -0.04864018
2
Properties=species:S:1:pos:R:3:forces:R:3 energy=-6.47987561377377 pbc="F F F"
Os       0.00000000       0.00000000       0.00000000       0.00000000       0.00000000       0.04740761
Os       0.00000000       0.00000000       5.04646465       0.00000000       0.00000000      -0.04740761
2
Properties=species:S:1:pos:R:3:forces:R:3 energy=-6.477071690535616 pbc="F F F"
Os       0.00000000       0.00000000       0.00000000       0.00000000       0.00000000       0.04678534
Os       0.00000000       0.00000000       5.10606061       0.00000000       0.00000000      -0.04678534
2
Properties=species:S:1:pos:R:3:forces:R:3 energy=-6.474292872607683 pbc="F F F"
Os       0.00000000       0.00000000       0.00000000       0.00000000       0.00000000       0.04656959
Os       0.00000000       0.00000000       5.16565657       0.00000000       0.00000000      -0.04656959
2
Properties=species:S:1:pos:R:3:forces:R:3 energy=-6.471514873997562 pbc="F F F"
Os       0.00000000       0.00000000       0.00000000       0.00000000       0.00000000       0.04646560
Os       0.00000000       0.00000000       5.22525253       0.00000000       0.00000000      -0.04646560
2
Properties=species:S:1:pos:R:3:forces:R:3 energy=-6.468756813645453 pbc="F F F"
Os       0.00000000       0.00000000       0.00000000       0.00000000       0.00000000       0.04611138
Os       0.00000000       0.00000000       5.28484848       0.00000000       0.00000000      -0.04611138
2
Properties=species:S:1:pos:R:3:forces:R:3 energy=-6.466034545571283 pbc="F F F"
Os       0.00000000       0.00000000       0.00000000       0.00000000       0.00000000       0.04514357
Os       0.00000000       0.00000000       5.34444444       0.00000000       0.00000000      -0.04514357
2
Properties=species:S:1:pos:R:3:forces:R:3 energy=-6.463394929377562 pbc="F F F"
Os       0.00000000       0.00000000       0.00000000       0.00000000       0.00000000       0.04327356
Os       0.00000000       0.00000000       5.40404040       0.00000000       0.00000000      -0.04327356
2
Properties=species:S:1:pos:R:3:forces:R:3 energy=-6.4608949096030495 pbc="F F F"
Os       0.00000000       0.00000000       0.00000000       0.00000000       0.00000000       0.04037198
Os       0.00000000       0.00000000       5.46363636       0.00000000       0.00000000      -0.04037198
2
Properties=species:S:1:pos:R:3:forces:R:3 energy=-6.458600547793233 pbc="F F F"
Os       0.00000000       0.00000000       0.00000000       0.00000000       0.00000000       0.03650672
Os       0.00000000       0.00000000       5.52323232       0.00000000       0.00000000      -0.03650672
2
Properties=species:S:1:pos:R:3:forces:R:3 energy=-6.456559426133772 pbc="F F F"
Os       0.00000000       0.00000000       0.00000000       0.00000000       0.00000000       0.03194265
Os       0.00000000       0.00000000       5.58282828       0.00000000       0.00000000      -0.03194265
2
Properties=species:S:1:pos:R:3:forces:R:3 energy=-6.454804432053461 pbc="F F F"
Os       0.00000000       0.00000000       0.00000000       0.00000000       0.00000000       0.02709020
Os       0.00000000       0.00000000       5.64242424       0.00000000       0.00000000      -0.02709020
2
Properties=species:S:1:pos:R:3:forces:R:3 energy=-6.453327161465401 pbc="F F F"
Os       0.00000000       0.00000000       0.00000000       0.00000000       0.00000000       0.02242438
Os       0.00000000       0.00000000       5.70202020       0.00000000       0.00000000      -0.02242438
2
Properties=species:S:1:pos:R:3:forces:R:3 energy=-6.452114147303655 pbc="F F F"
Os       0.00000000       0.00000000       0.00000000       0.00000000       0.00000000       0.01838379
Os       0.00000000       0.00000000       5.76161616       0.00000000       0.00000000      -0.01838379
2
Properties=species:S:1:pos:R:3:forces:R:3 energy=-6.451118280971974 pbc="F F F"
Os       0.00000000       0.00000000       0.00000000       0.00000000       0.00000000       0.01526618
Os       0.00000000       0.00000000       5.82121212       0.00000000       0.00000000      -0.01526618
2
Properties=species:S:1:pos:R:3:forces:R:3 energy=-6.450272238228043 pbc="F F F"
Os       0.00000000       0.00000000       0.00000000       0.00000000       0.00000000       0.01317474
Os       0.00000000       0.00000000       5.88080808       0.00000000       0.00000000      -0.01317474
2
Properties=species:S:1:pos:R:3:forces:R:3 energy=-6.449531377104703 pbc="F F F"
Os       0.00000000       0.00000000       0.00000000       0.00000000       0.00000000       0.01196526
Os       0.00000000       0.00000000       5.94040404       0.00000000       0.00000000      -0.01196526
2
Properties=species:S:1:pos:R:3:forces:R:3 energy=-6.448838526404064 pbc="F F F"
Os       0.00000000       0.00000000       0.00000000       0.00000000       0.00000000       0.01128462
Os       0.00000000       0.00000000       6.00000000       0.00000000       0.00000000      -0.01128462
