2
Properties=species:S:1:pos:R:3:forces:R:3 energy=-2777490.7934273 pbc="F F F"
Pb       0.00000000       0.00000000       0.00000000       0.00000000       0.00000000 17372046.00000000
Pb       0.00000000       0.00000000       0.10000000       0.00000000       0.00000000 -17372046.00000000
2
Properties=species:S:1:pos:R:3:forces:R:3 energy=-1700509.2934273 pbc="F F F"
Pb       0.00000000       0.00000000       0.00000000       0.00000000       0.00000000 17476134.00000000
Pb       0.00000000       0.00000000       0.15959596       0.00000000       0.00000000 -17476134.00000000
2
Properties=species:S:1:pos:R:3:forces:R:3 energy=-803324.2309273 pbc="F F F"
Pb       0.00000000       0.00000000       0.00000000       0.00000000       0.00000000 12143244.00000000
Pb       0.00000000       0.00000000       0.21919192       0.00000000       0.00000000 -12143244.00000000
2
Properties=species:S:1:pos:R:3:forces:R:3 energy=-268509.5434273 pbc="F F F"
Pb       0.00000000       0.00000000       0.00000000       0.00000000       0.00000000 5982107.50000000
Pb       0.00000000       0.00000000       0.27878788       0.00000000       0.00000000 -5982107.50000000
2
Properties=species:S:1:pos:R:3:forces:R:3 energy=-48084.81295855002 pbc="F F F"
Pb       0.00000000       0.00000000       0.00000000       0.00000000       0.00000000 1853353.00000000
Pb       0.00000000       0.00000000       0.33838384       0.00000000       0.00000000 -1853353.00000000
2
Properties=species:S:1:pos:R:3:forces:R:3 energy=-2743.6156929250233 pbc="F F F"
Pb       0.00000000       0.00000000       0.00000000       0.00000000       0.00000000   97316.64062500
Pb       0.00000000       0.00000000       0.39797980       0.00000000       0.00000000  -97316.64062500
2
Properties=species:S:1:pos:R:3:forces:R:3 energy=-203.9210365466173 pbc="F F F"
Pb       0.00000000       0.00000000       0.00000000       0.00000000       0.00000000    8069.90087891
Pb       0.00000000       0.00000000       0.45757576       0.00000000       0.00000000   -8069.90087891
2
Properties=species:S:1:pos:R:3:forces:R:3 energy=-18.39367752832478 pbc="F F F"
Pb       0.00000000       0.00000000       0.00000000       0.00000000       0.00000000     659.44433594
Pb       0.00000000       0.00000000       0.51717172       0.00000000       0.00000000    -659.44433594
2
Properties=species:S:1:pos:R:3:forces:R:3 energy=15.134513100307299 pbc="F F F"
Pb       0.00000000       0.00000000       0.00000000       0.00000000       0.00000000     385.54971313
Pb       0.00000000       0.00000000       0.57676768       0.00000000       0.00000000    -385.54971313
2
Properties=species:S:1:pos:R:3:forces:R:3 energy=16.728862039456224 pbc="F F F"
Pb       0.00000000       0.00000000       0.00000000       0.00000000       0.00000000     -79.39988708
Pb       0.00000000       0.00000000       0.63636364       0.00000000       0.00000000      79.39988708
2
Properties=species:S:1:pos:R:3:forces:R:3 energy=11.677571571720772 pbc="F F F"
Pb       0.00000000       0.00000000       0.00000000       0.00000000       0.00000000     -81.06733704
Pb       0.00000000       0.00000000       0.69595960       0.00000000       0.00000000      81.06733704
2
Properties=species:S:1:pos:R:3:forces:R:3 energy=7.027716984546503 pbc="F F F"
Pb       0.00000000       0.00000000       0.00000000       0.00000000       0.00000000     -61.55863190
Pb       0.00000000       0.00000000       0.75555556       0.00000000       0.00000000      61.55863190
2
Properties=species:S:1:pos:R:3:forces:R:3 energy=4.667372202304849 pbc="F F F"
Pb       0.00000000       0.00000000       0.00000000       0.00000000       0.00000000     -10.72633362
Pb       0.00000000       0.00000000       0.81515152       0.00000000       0.00000000      10.72633362
2
Properties=species:S:1:pos:R:3:forces:R:3 energy=5.231567990462704 pbc="F F F"
Pb       0.00000000       0.00000000       0.00000000       0.00000000       0.00000000      17.55762100
Pb       0.00000000       0.00000000       0.87474747       0.00000000       0.00000000     -17.55762100
2
Properties=species:S:1:pos:R:3:forces:R:3 energy=6.008648744931104 pbc="F F F"
Pb       0.00000000       0.00000000       0.00000000       0.00000000       0.00000000       3.50775838
Pb       0.00000000       0.00000000       0.93434343       0.00000000       0.00000000      -3.50775838
2
Properties=species:S:1:pos:R:3:forces:R:3 energy=5.3935224360719625 pbc="F F F"
Pb       0.00000000       0.00000000       0.00000000       0.00000000       0.00000000     -16.94950867
Pb       0.00000000       0.00000000       0.99393939       0.00000000       0.00000000      16.94950867
2
Properties=species:S:1:pos:R:3:forces:R:3 energy=9.04052983324641 pbc="F F F"
Pb       0.00000000       0.00000000       0.00000000       0.00000000       0.00000000     134.09504700
Pb       0.00000000       0.00000000       1.05353535       0.00000000       0.00000000    -134.09504700
2
Properties=species:S:1:pos:R:3:forces:R:3 energy=19.86329573478926 pbc="F F F"
Pb       0.00000000       0.00000000       0.00000000       0.00000000       0.00000000     212.39817810
Pb       0.00000000       0.00000000       1.11313131       0.00000000       0.00000000    -212.39817810
2
Properties=species:S:1:pos:R:3:forces:R:3 energy=31.654888101339818 pbc="F F F"
Pb       0.00000000       0.00000000       0.00000000       0.00000000       0.00000000     159.82543945
Pb       0.00000000       0.00000000       1.17272727       0.00000000       0.00000000    -159.82543945
2
Properties=species:S:1:pos:R:3:forces:R:3 energy=37.736872602131534 pbc="F F F"
Pb       0.00000000       0.00000000       0.00000000       0.00000000       0.00000000      45.83929062
Pb       0.00000000       0.00000000       1.23232323       0.00000000       0.00000000     -45.83929062
2
Properties=species:S:1:pos:R:3:forces:R:3 energy=38.91090029832959 pbc="F F F"
Pb       0.00000000       0.00000000       0.00000000       0.00000000       0.00000000       1.04651749
Pb       0.00000000       0.00000000       1.29191919       0.00000000       0.00000000      -1.04651749
2
Properties=species:S:1:pos:R:3:forces:R:3 energy=38.707021515161266 pbc="F F F"
Pb       0.00000000       0.00000000       0.00000000       0.00000000       0.00000000      -6.39520454
Pb       0.00000000       0.00000000       1.35151515       0.00000000       0.00000000       6.39520454
2
Properties=species:S:1:pos:R:3:forces:R:3 energy=37.67069226443932 pbc="F F F"
Pb       0.00000000       0.00000000       0.00000000       0.00000000       0.00000000     -27.70724297
Pb       0.00000000       0.00000000       1.41111111       0.00000000       0.00000000      27.70724297
2
Properties=species:S:1:pos:R:3:forces:R:3 energy=35.63088448181662 pbc="F F F"
Pb       0.00000000       0.00000000       0.00000000       0.00000000       0.00000000     -42.33459091
Pb       0.00000000       0.00000000       1.47070707       0.00000000       0.00000000      42.33459091
2
Properties=species:S:1:pos:R:3:forces:R:3 energy=32.405087886351275 pbc="F F F"
Pb       0.00000000       0.00000000       0.00000000       0.00000000       0.00000000     -62.75664139
Pb       0.00000000       0.00000000       1.53030303       0.00000000       0.00000000      62.75664139
2
Properties=species:S:1:pos:R:3:forces:R:3 energy=28.54671025481662 pbc="F F F"
Pb       0.00000000       0.00000000       0.00000000       0.00000000       0.00000000     -66.43409729
Pb       0.00000000       0.00000000       1.58989899       0.00000000       0.00000000      66.43409729
2
Properties=species:S:1:pos:R:3:forces:R:3 energy=24.454240699667334 pbc="F F F"
Pb       0.00000000       0.00000000       0.00000000       0.00000000       0.00000000     -70.62552643
Pb       0.00000000       0.00000000       1.64949495       0.00000000       0.00000000      70.62552643
2
Properties=species:S:1:pos:R:3:forces:R:3 energy=20.11773827505249 pbc="F F F"
Pb       0.00000000       0.00000000       0.00000000       0.00000000       0.00000000     -74.00346375
Pb       0.00000000       0.00000000       1.70909091       0.00000000       0.00000000      74.00346375
2
Properties=species:S:1:pos:R:3:forces:R:3 energy=15.86432485180757 pbc="F F F"
Pb       0.00000000       0.00000000       0.00000000       0.00000000       0.00000000     -68.11840057
Pb       0.00000000       0.00000000       1.76868687       0.00000000       0.00000000      68.11840057
2
Properties=species:S:1:pos:R:3:forces:R:3 energy=11.941788082916561 pbc="F F F"
Pb       0.00000000       0.00000000       0.00000000       0.00000000       0.00000000     -63.27297211
Pb       0.00000000       0.00000000       1.82828283       0.00000000       0.00000000      63.27297211
2
Properties=species:S:1:pos:R:3:forces:R:3 energy=8.414825449416366 pbc="F F F"
Pb       0.00000000       0.00000000       0.00000000       0.00000000       0.00000000     -54.99590302
Pb       0.00000000       0.00000000       1.88787879       0.00000000       0.00000000      54.99590302
2
Properties=species:S:1:pos:R:3:forces:R:3 energy=5.42380561565649 pbc="F F F"
Pb       0.00000000       0.00000000       0.00000000       0.00000000       0.00000000     -44.93376160
Pb       0.00000000       0.00000000       1.94747475       0.00000000       0.00000000      44.93376160
2
Properties=species:S:1:pos:R:3:forces:R:3 energy=3.0529201732284754 pbc="F F F"
Pb       0.00000000       0.00000000       0.00000000       0.00000000       0.00000000     -34.97882462
Pb       0.00000000       0.00000000       2.00707071       0.00000000       0.00000000      34.97882462
2
Properties=species:S:1:pos:R:3:forces:R:3 energy=1.2226310238855358 pbc="F F F"
Pb       0.00000000       0.00000000       0.00000000       0.00000000       0.00000000     -26.71910095
Pb       0.00000000       0.00000000       2.06666667       0.00000000       0.00000000      26.71910095
2
Properties=species:S:1:pos:R:3:forces:R:3 energy=-0.16912708512766314 pbc="F F F"
Pb       0.00000000       0.00000000       0.00000000       0.00000000       0.00000000     -20.25698090
Pb       0.00000000       0.00000000       2.12626263       0.00000000       0.00000000      20.25698090
2
Properties=species:S:1:pos:R:3:forces:R:3 energy=-1.2234757553338373 pbc="F F F"
Pb       0.00000000       0.00000000       0.00000000       0.00000000       0.00000000     -15.39662266
Pb       0.00000000       0.00000000       2.18585859       0.00000000       0.00000000      15.39662266
2
Properties=species:S:1:pos:R:3:forces:R:3 energy=-2.0280978169339767 pbc="F F F"
Pb       0.00000000       0.00000000       0.00000000       0.00000000       0.00000000     -11.74853230
Pb       0.00000000       0.00000000       2.24545455       0.00000000       0.00000000      11.74853230
2
Properties=species:S:1:pos:R:3:forces:R:3 energy=-2.641237149830683 pbc="F F F"
Pb       0.00000000       0.00000000       0.00000000       0.00000000       0.00000000      -8.97586250
Pb       0.00000000       0.00000000       2.30505051       0.00000000       0.00000000       8.97586250
2
Properties=species:S:1:pos:R:3:forces:R:3 energy=-3.1128349960130777 pbc="F F F"
Pb       0.00000000       0.00000000       0.00000000       0.00000000       0.00000000      -6.94548655
Pb       0.00000000       0.00000000       2.36464646       0.00000000       0.00000000       6.94548655
2
Properties=species:S:1:pos:R:3:forces:R:3 energy=-3.4770506736957247 pbc="F F F"
Pb       0.00000000       0.00000000       0.00000000       0.00000000       0.00000000      -5.32050610
Pb       0.00000000       0.00000000       2.42424242       0.00000000       0.00000000       5.32050610
2
Properties=species:S:1:pos:R:3:forces:R:3 energy=-3.751373521964452 pbc="F F F"
Pb       0.00000000       0.00000000       0.00000000       0.00000000       0.00000000      -3.92336845
Pb       0.00000000       0.00000000       2.48383838       0.00000000       0.00000000       3.92336845
2
Properties=species:S:1:pos:R:3:forces:R:3 energy=-3.9491343156922145 pbc="F F F"
Pb       0.00000000       0.00000000       0.00000000       0.00000000       0.00000000      -2.75040555
Pb       0.00000000       0.00000000       2.54343434       0.00000000       0.00000000       2.75040555
2
Properties=species:S:1:pos:R:3:forces:R:3 energy=-4.0839352071157835 pbc="F F F"
Pb       0.00000000       0.00000000       0.00000000       0.00000000       0.00000000      -1.81459582
Pb       0.00000000       0.00000000       2.60303030       0.00000000       0.00000000       1.81459582
2
Properties=species:S:1:pos:R:3:forces:R:3 energy=-4.1699054531045405 pbc="F F F"
Pb       0.00000000       0.00000000       0.00000000       0.00000000       0.00000000      -1.10161090
Pb       0.00000000       0.00000000       2.66262626       0.00000000       0.00000000       1.10161090
2
Properties=species:S:1:pos:R:3:forces:R:3 energy=-4.217929871657669 pbc="F F F"
Pb       0.00000000       0.00000000       0.00000000       0.00000000       0.00000000      -0.52540904
Pb       0.00000000       0.00000000       2.72222222       0.00000000       0.00000000       0.52540904
2
Properties=species:S:1:pos:R:3:forces:R:3 energy=-4.234127317888772 pbc="F F F"
Pb       0.00000000       0.00000000       0.00000000       0.00000000       0.00000000      -0.03305464
Pb       0.00000000       0.00000000       2.78181818       0.00000000       0.00000000       0.03305464
2
Properties=species:S:1:pos:R:3:forces:R:3 energy=-4.224026162454651 pbc="F F F"
Pb       0.00000000       0.00000000       0.00000000       0.00000000       0.00000000       0.35167131
Pb       0.00000000       0.00000000       2.84141414       0.00000000       0.00000000      -0.35167131
2
Properties=species:S:1:pos:R:3:forces:R:3 energy=-4.194621430412243 pbc="F F F"
Pb       0.00000000       0.00000000       0.00000000       0.00000000       0.00000000       0.61647743
Pb       0.00000000       0.00000000       2.90101010       0.00000000       0.00000000      -0.61647743
2
Properties=species:S:1:pos:R:3:forces:R:3 energy=-4.152422867479594 pbc="F F F"
Pb       0.00000000       0.00000000       0.00000000       0.00000000       0.00000000       0.78717208
Pb       0.00000000       0.00000000       2.96060606       0.00000000       0.00000000      -0.78717208
2
Properties=species:S:1:pos:R:3:forces:R:3 energy=-4.101933474545262 pbc="F F F"
Pb       0.00000000       0.00000000       0.00000000       0.00000000       0.00000000       0.90025884
Pb       0.00000000       0.00000000       3.02020202       0.00000000       0.00000000      -0.90025884
2
Properties=species:S:1:pos:R:3:forces:R:3 energy=-4.0457668394637665 pbc="F F F"
Pb       0.00000000       0.00000000       0.00000000       0.00000000       0.00000000       0.98013377
Pb       0.00000000       0.00000000       3.07979798       0.00000000       0.00000000      -0.98013377
2
Properties=species:S:1:pos:R:3:forces:R:3 energy=-3.985616200394142 pbc="F F F"
Pb       0.00000000       0.00000000       0.00000000       0.00000000       0.00000000       1.03424799
Pb       0.00000000       0.00000000       3.13939394       0.00000000       0.00000000      -1.03424799
2
Properties=species:S:1:pos:R:3:forces:R:3 energy=-3.9229921652653292 pbc="F F F"
Pb       0.00000000       0.00000000       0.00000000       0.00000000       0.00000000       1.06326425
Pb       0.00000000       0.00000000       3.19898990       0.00000000       0.00000000      -1.06326425
2
Properties=species:S:1:pos:R:3:forces:R:3 energy=-3.8593627190315942 pbc="F F F"
Pb       0.00000000       0.00000000       0.00000000       0.00000000       0.00000000       1.06824672
Pb       0.00000000       0.00000000       3.25858586       0.00000000       0.00000000      -1.06824672
2
Properties=species:S:1:pos:R:3:forces:R:3 energy=-3.796090109593028 pbc="F F F"
Pb       0.00000000       0.00000000       0.00000000       0.00000000       0.00000000       1.05189633
Pb       0.00000000       0.00000000       3.31818182       0.00000000       0.00000000      -1.05189633
2
Properties=species:S:1:pos:R:3:forces:R:3 energy=-3.7343038205752985 pbc="F F F"
Pb       0.00000000       0.00000000       0.00000000       0.00000000       0.00000000       1.01961291
Pb       0.00000000       0.00000000       3.37777778       0.00000000       0.00000000      -1.01961291
2
Properties=species:S:1:pos:R:3:forces:R:3 energy=-3.674717428384935 pbc="F F F"
Pb       0.00000000       0.00000000       0.00000000       0.00000000       0.00000000       0.97942293
Pb       0.00000000       0.00000000       3.43737374       0.00000000       0.00000000      -0.97942293
2
Properties=species:S:1:pos:R:3:forces:R:3 energy=-3.617561211214069 pbc="F F F"
Pb       0.00000000       0.00000000       0.00000000       0.00000000       0.00000000       0.93917501
Pb       0.00000000       0.00000000       3.49696970       0.00000000       0.00000000      -0.93917501
2
Properties=species:S:1:pos:R:3:forces:R:3 energy=-3.5626966383764853 pbc="F F F"
Pb       0.00000000       0.00000000       0.00000000       0.00000000       0.00000000       0.90276253
Pb       0.00000000       0.00000000       3.55656566       0.00000000       0.00000000      -0.90276253
2
Properties=species:S:1:pos:R:3:forces:R:3 energy=-3.5098982800184904 pbc="F F F"
Pb       0.00000000       0.00000000       0.00000000       0.00000000       0.00000000       0.86938852
Pb       0.00000000       0.00000000       3.61616162       0.00000000       0.00000000      -0.86938852
2
Properties=species:S:1:pos:R:3:forces:R:3 energy=-3.4590665764919617 pbc="F F F"
Pb       0.00000000       0.00000000       0.00000000       0.00000000       0.00000000       0.83632988
Pb       0.00000000       0.00000000       3.67575758       0.00000000       0.00000000      -0.83632988
2
Properties=species:S:1:pos:R:3:forces:R:3 energy=-3.4102456679075157 pbc="F F F"
Pb       0.00000000       0.00000000       0.00000000       0.00000000       0.00000000       0.80173820
Pb       0.00000000       0.00000000       3.73535354       0.00000000       0.00000000      -0.80173820
2
Properties=species:S:1:pos:R:3:forces:R:3 energy=-3.363538997695897 pbc="F F F"
Pb       0.00000000       0.00000000       0.00000000       0.00000000       0.00000000       0.76555812
Pb       0.00000000       0.00000000       3.79494949       0.00000000       0.00000000      -0.76555812
2
Properties=species:S:1:pos:R:3:forces:R:3 energy=-3.3190048862912738 pbc="F F F"
Pb       0.00000000       0.00000000       0.00000000       0.00000000       0.00000000       0.72898412
Pb       0.00000000       0.00000000       3.85454545       0.00000000       0.00000000      -0.72898412
2
Properties=species:S:1:pos:R:3:forces:R:3 energy=-3.276630234690714 pbc="F F F"
Pb       0.00000000       0.00000000       0.00000000       0.00000000       0.00000000       0.69338620
Pb       0.00000000       0.00000000       3.91414141       0.00000000       0.00000000      -0.69338620
2
Properties=species:S:1:pos:R:3:forces:R:3 energy=-3.236325329770748 pbc="F F F"
Pb       0.00000000       0.00000000       0.00000000       0.00000000       0.00000000       0.65950733
Pb       0.00000000       0.00000000       3.97373737       0.00000000       0.00000000      -0.65950733
2
Properties=species:S:1:pos:R:3:forces:R:3 energy=-3.19798696537458 pbc="F F F"
Pb       0.00000000       0.00000000       0.00000000       0.00000000       0.00000000       0.62735283
Pb       0.00000000       0.00000000       4.03333333       0.00000000       0.00000000      -0.62735283
2
Properties=species:S:1:pos:R:3:forces:R:3 energy=-3.1615224675839824 pbc="F F F"
Pb       0.00000000       0.00000000       0.00000000       0.00000000       0.00000000       0.59659332
Pb       0.00000000       0.00000000       4.09292929       0.00000000       0.00000000      -0.59659332
2
Properties=species:S:1:pos:R:3:forces:R:3 energy=-3.126854483441945 pbc="F F F"
Pb       0.00000000       0.00000000       0.00000000       0.00000000       0.00000000       0.56704277
Pb       0.00000000       0.00000000       4.15252525       0.00000000       0.00000000      -0.56704277
2
Properties=species:S:1:pos:R:3:forces:R:3 energy=-3.0939086717257354 pbc="F F F"
Pb       0.00000000       0.00000000       0.00000000       0.00000000       0.00000000       0.53885162
Pb       0.00000000       0.00000000       4.21212121       0.00000000       0.00000000      -0.53885162
2
Properties=species:S:1:pos:R:3:forces:R:3 energy=-3.062592313303028 pbc="F F F"
Pb       0.00000000       0.00000000       0.00000000       0.00000000       0.00000000       0.51243794
Pb       0.00000000       0.00000000       4.27171717       0.00000000       0.00000000      -0.51243794
2
Properties=species:S:1:pos:R:3:forces:R:3 energy=-3.0327842261956612 pbc="F F F"
Pb       0.00000000       0.00000000       0.00000000       0.00000000       0.00000000       0.48830202
Pb       0.00000000       0.00000000       4.33131313       0.00000000       0.00000000      -0.48830202
2
Properties=species:S:1:pos:R:3:forces:R:3 energy=-3.0043364748594588 pbc="F F F"
Pb       0.00000000       0.00000000       0.00000000       0.00000000       0.00000000       0.46681485
Pb       0.00000000       0.00000000       4.39090909       0.00000000       0.00000000      -0.46681485
2
Properties=species:S:1:pos:R:3:forces:R:3 energy=-2.9770892725133766 pbc="F F F"
Pb       0.00000000       0.00000000       0.00000000       0.00000000       0.00000000       0.44805926
Pb       0.00000000       0.00000000       4.45050505       0.00000000       0.00000000      -0.44805926
2
Properties=species:S:1:pos:R:3:forces:R:3 energy=-2.950883969784372 pbc="F F F"
Pb       0.00000000       0.00000000       0.00000000       0.00000000       0.00000000       0.43171972
Pb       0.00000000       0.00000000       4.51010101       0.00000000       0.00000000      -0.43171972
2
Properties=species:S:1:pos:R:3:forces:R:3 energy=-2.9255964523154105 pbc="F F F"
Pb       0.00000000       0.00000000       0.00000000       0.00000000       0.00000000       0.41712028
Pb       0.00000000       0.00000000       4.56969697       0.00000000       0.00000000      -0.41712028
2
Properties=species:S:1:pos:R:3:forces:R:3 energy=-2.901148660884993 pbc="F F F"
Pb       0.00000000       0.00000000       0.00000000       0.00000000       0.00000000       0.40339938
Pb       0.00000000       0.00000000       4.62929293       0.00000000       0.00000000      -0.40339938
2
Properties=species:S:1:pos:R:3:forces:R:3 energy=-2.87751520377093 pbc="F F F"
Pb       0.00000000       0.00000000       0.00000000       0.00000000       0.00000000       0.38976991
Pb       0.00000000       0.00000000       4.68888889       0.00000000       0.00000000      -0.38976991
2
Properties=species:S:1:pos:R:3:forces:R:3 energy=-2.8546986309102014 pbc="F F F"
Pb       0.00000000       0.00000000       0.00000000       0.00000000       0.00000000       0.37578955
Pb       0.00000000       0.00000000       4.74848485       0.00000000       0.00000000      -0.37578955
2
Properties=species:S:1:pos:R:3:forces:R:3 energy=-2.8327292881791357 pbc="F F F"
Pb       0.00000000       0.00000000       0.00000000       0.00000000       0.00000000       0.36149246
Pb       0.00000000       0.00000000       4.80808081       0.00000000       0.00000000      -0.36149246
2
Properties=species:S:1:pos:R:3:forces:R:3 energy=-2.8116105254697303 pbc="F F F"
Pb       0.00000000       0.00000000       0.00000000       0.00000000       0.00000000       0.34733605
Pb       0.00000000       0.00000000       4.86767677       0.00000000       0.00000000      -0.34733605
2
Properties=species:S:1:pos:R:3:forces:R:3 energy=-2.7913138776329114 pbc="F F F"
Pb       0.00000000       0.00000000       0.00000000       0.00000000       0.00000000       0.33398223
Pb       0.00000000       0.00000000       4.92727273       0.00000000       0.00000000      -0.33398223
2
Properties=species:S:1:pos:R:3:forces:R:3 energy=-2.7717741693940696 pbc="F F F"
Pb       0.00000000       0.00000000       0.00000000       0.00000000       0.00000000       0.32194322
Pb       0.00000000       0.00000000       4.98686869       0.00000000       0.00000000      -0.32194322
2
Properties=species:S:1:pos:R:3:forces:R:3 energy=-2.7529143552347937 pbc="F F F"
Pb       0.00000000       0.00000000       0.00000000       0.00000000       0.00000000       0.31127968
Pb       0.00000000       0.00000000       5.04646465       0.00000000       0.00000000      -0.31127968
2
Properties=species:S:1:pos:R:3:forces:R:3 energy=-2.734657262923786 pbc="F F F"
Pb       0.00000000       0.00000000       0.00000000       0.00000000       0.00000000       0.30142573
Pb       0.00000000       0.00000000       5.10606061       0.00000000       0.00000000      -0.30142573
2
Properties=species:S:1:pos:R:3:forces:R:3 energy=-2.716990972476605 pbc="F F F"
Pb       0.00000000       0.00000000       0.00000000       0.00000000       0.00000000       0.29119456
Pb       0.00000000       0.00000000       5.16565657       0.00000000       0.00000000      -0.29119456
2
Properties=species:S:1:pos:R:3:forces:R:3 energy=-2.6999882508536364 pbc="F F F"
Pb       0.00000000       0.00000000       0.00000000       0.00000000       0.00000000       0.27902925
Pb       0.00000000       0.00000000       5.22525253       0.00000000       0.00000000      -0.27902925
2
Properties=species:S:1:pos:R:3:forces:R:3 energy=-2.6838031982608825 pbc="F F F"
Pb       0.00000000       0.00000000       0.00000000       0.00000000       0.00000000       0.26338786
Pb       0.00000000       0.00000000       5.28484848       0.00000000       0.00000000      -0.26338786
2
Properties=species:S:1:pos:R:3:forces:R:3 energy=-2.6686845425695878 pbc="F F F"
Pb       0.00000000       0.00000000       0.00000000       0.00000000       0.00000000       0.24314480
Pb       0.00000000       0.00000000       5.34444444       0.00000000       0.00000000      -0.24314480
2
Properties=species:S:1:pos:R:3:forces:R:3 energy=-2.6549212624571843 pbc="F F F"
Pb       0.00000000       0.00000000       0.00000000       0.00000000       0.00000000       0.21792935
Pb       0.00000000       0.00000000       5.40404040       0.00000000       0.00000000      -0.21792935
2
Properties=species:S:1:pos:R:3:forces:R:3 energy=-2.6427943935921805 pbc="F F F"
Pb       0.00000000       0.00000000       0.00000000       0.00000000       0.00000000       0.18830374
Pb       0.00000000       0.00000000       5.46363636       0.00000000       0.00000000      -0.18830374
2
Properties=species:S:1:pos:R:3:forces:R:3 energy=-2.6325369822324274 pbc="F F F"
Pb       0.00000000       0.00000000       0.00000000       0.00000000       0.00000000       0.15574779
Pb       0.00000000       0.00000000       5.52323232       0.00000000       0.00000000      -0.15574779
2
Properties=species:S:1:pos:R:3:forces:R:3 energy=-2.624252042307419 pbc="F F F"
Pb       0.00000000       0.00000000       0.00000000       0.00000000       0.00000000       0.12239556
Pb       0.00000000       0.00000000       5.58282828       0.00000000       0.00000000      -0.12239556
2
Properties=species:S:1:pos:R:3:forces:R:3 energy=-2.6179154069377746 pbc="F F F"
Pb       0.00000000       0.00000000       0.00000000       0.00000000       0.00000000       0.09070341
Pb       0.00000000       0.00000000       5.64242424       0.00000000       0.00000000      -0.09070341
2
Properties=species:S:1:pos:R:3:forces:R:3 energy=-2.613359560321372 pbc="F F F"
Pb       0.00000000       0.00000000       0.00000000       0.00000000       0.00000000       0.06296823
Pb       0.00000000       0.00000000       5.70202020       0.00000000       0.00000000      -0.06296823
2
Properties=species:S:1:pos:R:3:forces:R:3 energy=-2.6102960538315134 pbc="F F F"
Pb       0.00000000       0.00000000       0.00000000       0.00000000       0.00000000       0.04096976
Pb       0.00000000       0.00000000       5.76161616       0.00000000       0.00000000      -0.04096976
2
Properties=species:S:1:pos:R:3:forces:R:3 energy=-2.60834600300421 pbc="F F F"
Pb       0.00000000       0.00000000       0.00000000       0.00000000       0.00000000       0.02555566
Pb       0.00000000       0.00000000       5.82121212       0.00000000       0.00000000      -0.02555566
2
Properties=species:S:1:pos:R:3:forces:R:3 energy=-2.6071236069007724 pbc="F F F"
Pb       0.00000000       0.00000000       0.00000000       0.00000000       0.00000000       0.01654566
Pb       0.00000000       0.00000000       5.88080808       0.00000000       0.00000000      -0.01654566
2
Properties=species:S:1:pos:R:3:forces:R:3 energy=-2.6062714087149446 pbc="F F F"
Pb       0.00000000       0.00000000       0.00000000       0.00000000       0.00000000       0.01262942
Pb       0.00000000       0.00000000       5.94040404       0.00000000       0.00000000      -0.01262942
2
Properties=species:S:1:pos:R:3:forces:R:3 energy=-2.6055581186663326 pbc="F F F"
Pb       0.00000000       0.00000000       0.00000000       0.00000000       0.00000000       0.01160836
Pb       0.00000000       0.00000000       6.00000000       0.00000000       0.00000000      -0.01160836
