2
Properties=species:S:1:pos:R:3:forces:R:3 energy=173888767.83995107 pbc="F F F"
Pr       0.00000000       0.00000000       0.00000000       0.00000000       0.00000000 -773964480.00000000
Pr       0.00000000       0.00000000       0.10000000       0.00000000       0.00000000 773964480.00000000
2
Properties=species:S:1:pos:R:3:forces:R:3 energy=123107679.83995107 pbc="F F F"
Pr       0.00000000       0.00000000       0.00000000       0.00000000       0.00000000 -879367424.00000000
Pr       0.00000000       0.00000000       0.15959596       0.00000000       0.00000000 879367424.00000000
2
Properties=species:S:1:pos:R:3:forces:R:3 energy=74142007.83995107 pbc="F F F"
Pr       0.00000000       0.00000000       0.00000000       0.00000000       0.00000000 -733737728.00000000
Pr       0.00000000       0.00000000       0.21919192       0.00000000       0.00000000 733737728.00000000
2
Properties=species:S:1:pos:R:3:forces:R:3 energy=37642583.83995107 pbc="F F F"
Pr       0.00000000       0.00000000       0.00000000       0.00000000       0.00000000 -488721952.00000000
Pr       0.00000000       0.00000000       0.27878788       0.00000000       0.00000000 488721952.00000000
2
Properties=species:S:1:pos:R:3:forces:R:3 energy=15693650.839951083 pbc="F F F"
Pr       0.00000000       0.00000000       0.00000000       0.00000000       0.00000000 -258256544.00000000
Pr       0.00000000       0.00000000       0.33838384       0.00000000       0.00000000 258256544.00000000
2
Properties=species:S:1:pos:R:3:forces:R:3 energy=5223693.839951082 pbc="F F F"
Pr       0.00000000       0.00000000       0.00000000       0.00000000       0.00000000 -107292480.00000000
Pr       0.00000000       0.00000000       0.39797980       0.00000000       0.00000000 107292480.00000000
2
Properties=species:S:1:pos:R:3:forces:R:3 energy=1341617.0899510826 pbc="F F F"
Pr       0.00000000       0.00000000       0.00000000       0.00000000       0.00000000 -34221612.00000000
Pr       0.00000000       0.00000000       0.45757576       0.00000000       0.00000000 34221612.00000000
2
Properties=species:S:1:pos:R:3:forces:R:3 energy=237619.54307609526 pbc="F F F"
Pr       0.00000000       0.00000000       0.00000000       0.00000000       0.00000000 -7599002.00000000
Pr       0.00000000       0.00000000       0.51717172       0.00000000       0.00000000 7599002.00000000
2
Properties=species:S:1:pos:R:3:forces:R:3 energy=31757.173935495586 pbc="F F F"
Pr       0.00000000       0.00000000       0.00000000       0.00000000       0.00000000 -1090309.25000000
Pr       0.00000000       0.00000000       0.57676768       0.00000000       0.00000000 1090309.25000000
2
Properties=species:S:1:pos:R:3:forces:R:3 energy=4188.566513658601 pbc="F F F"
Pr       0.00000000       0.00000000       0.00000000       0.00000000       0.00000000 -146638.53125000
Pr       0.00000000       0.00000000       0.63636364       0.00000000       0.00000000  146638.53125000
2
Properties=species:S:1:pos:R:3:forces:R:3 energy=-31.182757658193466 pbc="F F F"
Pr       0.00000000       0.00000000       0.00000000       0.00000000       0.00000000   -5941.85107422
Pr       0.00000000       0.00000000       0.69595960       0.00000000       0.00000000    5941.85107422
2
Properties=species:S:1:pos:R:3:forces:R:3 energy=-48.39672772847804 pbc="F F F"
Pr       0.00000000       0.00000000       0.00000000       0.00000000       0.00000000     -86.10191345
Pr       0.00000000       0.00000000       0.75555556       0.00000000       0.00000000      86.10191345
2
Properties=species:S:1:pos:R:3:forces:R:3 energy=-50.95559595928312 pbc="F F F"
Pr       0.00000000       0.00000000       0.00000000       0.00000000       0.00000000       0.66355407
Pr       0.00000000       0.00000000       0.81515152       0.00000000       0.00000000      -0.66355407
2
Properties=species:S:1:pos:R:3:forces:R:3 energy=-47.07459901442708 pbc="F F F"
Pr       0.00000000       0.00000000       0.00000000       0.00000000       0.00000000     120.79962921
Pr       0.00000000       0.00000000       0.87474747       0.00000000       0.00000000    -120.79962921
2
Properties=species:S:1:pos:R:3:forces:R:3 energy=-39.05636440670131 pbc="F F F"
Pr       0.00000000       0.00000000       0.00000000       0.00000000       0.00000000     143.48165894
Pr       0.00000000       0.00000000       0.93434343       0.00000000       0.00000000    -143.48165894
2
Properties=species:S:1:pos:R:3:forces:R:3 energy=-30.409257754538046 pbc="F F F"
Pr       0.00000000       0.00000000       0.00000000       0.00000000       0.00000000     141.40614319
Pr       0.00000000       0.00000000       0.99393939       0.00000000       0.00000000    -141.40614319
2
Properties=species:S:1:pos:R:3:forces:R:3 energy=-22.258631879420495 pbc="F F F"
Pr       0.00000000       0.00000000       0.00000000       0.00000000       0.00000000     138.52348328
Pr       0.00000000       0.00000000       1.05353535       0.00000000       0.00000000    -138.52348328
2
Properties=species:S:1:pos:R:3:forces:R:3 energy=-13.339939357298457 pbc="F F F"
Pr       0.00000000       0.00000000       0.00000000       0.00000000       0.00000000     161.74763489
Pr       0.00000000       0.00000000       1.11313131       0.00000000       0.00000000    -161.74763489
2
Properties=species:S:1:pos:R:3:forces:R:3 energy=-4.347739272790686 pbc="F F F"
Pr       0.00000000       0.00000000       0.00000000       0.00000000       0.00000000     133.29092407
Pr       0.00000000       0.00000000       1.17272727       0.00000000       0.00000000    -133.29092407
2
Properties=species:S:1:pos:R:3:forces:R:3 energy=4.515055191171368 pbc="F F F"
Pr       0.00000000       0.00000000       0.00000000       0.00000000       0.00000000     154.07412720
Pr       0.00000000       0.00000000       1.23232323       0.00000000       0.00000000    -154.07412720
2
Properties=species:S:1:pos:R:3:forces:R:3 energy=13.00597432301778 pbc="F F F"
Pr       0.00000000       0.00000000       0.00000000       0.00000000       0.00000000     160.22067261
Pr       0.00000000       0.00000000       1.29191919       0.00000000       0.00000000    -160.22067261
2
Properties=species:S:1:pos:R:3:forces:R:3 energy=23.413151819992105 pbc="F F F"
Pr       0.00000000       0.00000000       0.00000000       0.00000000       0.00000000     145.20317078
Pr       0.00000000       0.00000000       1.35151515       0.00000000       0.00000000    -145.20317078
2
Properties=species:S:1:pos:R:3:forces:R:3 energy=29.065487179680858 pbc="F F F"
Pr       0.00000000       0.00000000       0.00000000       0.00000000       0.00000000      48.65998840
Pr       0.00000000       0.00000000       1.41111111       0.00000000       0.00000000     -48.65998840
2
Properties=species:S:1:pos:R:3:forces:R:3 energy=30.064930245911967 pbc="F F F"
Pr       0.00000000       0.00000000       0.00000000       0.00000000       0.00000000      -7.85822821
Pr       0.00000000       0.00000000       1.47070707       0.00000000       0.00000000       7.85822821
2
Properties=species:S:1:pos:R:3:forces:R:3 energy=28.691975822668432 pbc="F F F"
Pr       0.00000000       0.00000000       0.00000000       0.00000000       0.00000000     -34.48925018
Pr       0.00000000       0.00000000       1.53030303       0.00000000       0.00000000      34.48925018
2
Properties=species:S:1:pos:R:3:forces:R:3 energy=26.154082596113334 pbc="F F F"
Pr       0.00000000       0.00000000       0.00000000       0.00000000       0.00000000     -51.88645554
Pr       0.00000000       0.00000000       1.58989899       0.00000000       0.00000000      51.88645554
2
Properties=species:S:1:pos:R:3:forces:R:3 energy=22.560736369865417 pbc="F F F"
Pr       0.00000000       0.00000000       0.00000000       0.00000000       0.00000000     -63.96376801
Pr       0.00000000       0.00000000       1.64949495       0.00000000       0.00000000      63.96376801
2
Properties=species:S:1:pos:R:3:forces:R:3 energy=18.73078884295514 pbc="F F F"
Pr       0.00000000       0.00000000       0.00000000       0.00000000       0.00000000     -63.85499191
Pr       0.00000000       0.00000000       1.70909091       0.00000000       0.00000000      63.85499191
2
Properties=species:S:1:pos:R:3:forces:R:3 energy=15.185579659969601 pbc="F F F"
Pr       0.00000000       0.00000000       0.00000000       0.00000000       0.00000000     -54.41570663
Pr       0.00000000       0.00000000       1.76868687       0.00000000       0.00000000      54.41570663
2
Properties=species:S:1:pos:R:3:forces:R:3 energy=12.28917049328184 pbc="F F F"
Pr       0.00000000       0.00000000       0.00000000       0.00000000       0.00000000     -41.79140091
Pr       0.00000000       0.00000000       1.82828283       0.00000000       0.00000000      41.79140091
2
Properties=species:S:1:pos:R:3:forces:R:3 energy=10.066917914384815 pbc="F F F"
Pr       0.00000000       0.00000000       0.00000000       0.00000000       0.00000000     -33.91014099
Pr       0.00000000       0.00000000       1.88787879       0.00000000       0.00000000      33.91014099
2
Properties=species:S:1:pos:R:3:forces:R:3 energy=8.159882178905463 pbc="F F F"
Pr       0.00000000       0.00000000       0.00000000       0.00000000       0.00000000     -30.48432922
Pr       0.00000000       0.00000000       1.94747475       0.00000000       0.00000000      30.48432922
2
Properties=species:S:1:pos:R:3:forces:R:3 energy=6.411205222768575 pbc="F F F"
Pr       0.00000000       0.00000000       0.00000000       0.00000000       0.00000000     -28.22199631
Pr       0.00000000       0.00000000       2.00707071       0.00000000       0.00000000      28.22199631
2
Properties=species:S:1:pos:R:3:forces:R:3 energy=4.7925690716465965 pbc="F F F"
Pr       0.00000000       0.00000000       0.00000000       0.00000000       0.00000000     -26.01485252
Pr       0.00000000       0.00000000       2.06666667       0.00000000       0.00000000      26.01485252
2
Properties=species:S:1:pos:R:3:forces:R:3 energy=3.338771926190679 pbc="F F F"
Pr       0.00000000       0.00000000       0.00000000       0.00000000       0.00000000     -22.60407066
Pr       0.00000000       0.00000000       2.12626263       0.00000000       0.00000000      22.60407066
2
Properties=species:S:1:pos:R:3:forces:R:3 energy=2.089019844399828 pbc="F F F"
Pr       0.00000000       0.00000000       0.00000000       0.00000000       0.00000000     -19.50648689
Pr       0.00000000       0.00000000       2.18585859       0.00000000       0.00000000      19.50648689
2
Properties=species:S:1:pos:R:3:forces:R:3 energy=1.0121664566646436 pbc="F F F"
Pr       0.00000000       0.00000000       0.00000000       0.00000000       0.00000000     -16.58455467
Pr       0.00000000       0.00000000       2.24545455       0.00000000       0.00000000      16.58455467
2
Properties=species:S:1:pos:R:3:forces:R:3 energy=0.10898489808842252 pbc="F F F"
Pr       0.00000000       0.00000000       0.00000000       0.00000000       0.00000000     -13.76470184
Pr       0.00000000       0.00000000       2.30505051       0.00000000       0.00000000      13.76470184
2
Properties=species:S:1:pos:R:3:forces:R:3 energy=-0.6298577196000535 pbc="F F F"
Pr       0.00000000       0.00000000       0.00000000       0.00000000       0.00000000     -11.05922508
Pr       0.00000000       0.00000000       2.36464646       0.00000000       0.00000000      11.05922508
2
Properties=species:S:1:pos:R:3:forces:R:3 energy=-1.2178350625261074 pbc="F F F"
Pr       0.00000000       0.00000000       0.00000000       0.00000000       0.00000000      -8.76244068
Pr       0.00000000       0.00000000       2.42424242       0.00000000       0.00000000       8.76244068
2
Properties=species:S:1:pos:R:3:forces:R:3 energy=-1.6838444448214138 pbc="F F F"
Pr       0.00000000       0.00000000       0.00000000       0.00000000       0.00000000      -6.93696356
Pr       0.00000000       0.00000000       2.48383838       0.00000000       0.00000000       6.93696356
2
Properties=species:S:1:pos:R:3:forces:R:3 energy=-2.049147085023606 pbc="F F F"
Pr       0.00000000       0.00000000       0.00000000       0.00000000       0.00000000      -5.35969734
Pr       0.00000000       0.00000000       2.54343434       0.00000000       0.00000000       5.35969734
2
Properties=species:S:1:pos:R:3:forces:R:3 energy=-2.3302223899488355 pbc="F F F"
Pr       0.00000000       0.00000000       0.00000000       0.00000000       0.00000000      -4.15398741
Pr       0.00000000       0.00000000       2.60303030       0.00000000       0.00000000       4.15398741
2
Properties=species:S:1:pos:R:3:forces:R:3 energy=-2.553103523659549 pbc="F F F"
Pr       0.00000000       0.00000000       0.00000000       0.00000000       0.00000000      -3.38189721
Pr       0.00000000       0.00000000       2.66262626       0.00000000       0.00000000       3.38189721
2
Properties=species:S:1:pos:R:3:forces:R:3 energy=-2.7372957495223926 pbc="F F F"
Pr       0.00000000       0.00000000       0.00000000       0.00000000       0.00000000      -2.81374764
Pr       0.00000000       0.00000000       2.72222222       0.00000000       0.00000000       2.81374764
2
Properties=species:S:1:pos:R:3:forces:R:3 energy=-2.8892196911997234 pbc="F F F"
Pr       0.00000000       0.00000000       0.00000000       0.00000000       0.00000000      -2.28998518
Pr       0.00000000       0.00000000       2.78181818       0.00000000       0.00000000       2.28998518
2
Properties=species:S:1:pos:R:3:forces:R:3 energy=-3.011357284755853 pbc="F F F"
Pr       0.00000000       0.00000000       0.00000000       0.00000000       0.00000000      -1.82193518
Pr       0.00000000       0.00000000       2.84141414       0.00000000       0.00000000       1.82193518
2
Properties=species:S:1:pos:R:3:forces:R:3 energy=-3.108133877113887 pbc="F F F"
Pr       0.00000000       0.00000000       0.00000000       0.00000000       0.00000000      -1.44080484
Pr       0.00000000       0.00000000       2.90101010       0.00000000       0.00000000       1.44080484
2
Properties=species:S:1:pos:R:3:forces:R:3 energy=-3.1846614353621683 pbc="F F F"
Pr       0.00000000       0.00000000       0.00000000       0.00000000       0.00000000      -1.13803327
Pr       0.00000000       0.00000000       2.96060606       0.00000000       0.00000000       1.13803327
2
Properties=species:S:1:pos:R:3:forces:R:3 energy=-3.244675495782115 pbc="F F F"
Pr       0.00000000       0.00000000       0.00000000       0.00000000       0.00000000      -0.88094026
Pr       0.00000000       0.00000000       3.02020202       0.00000000       0.00000000       0.88094026
2
Properties=species:S:1:pos:R:3:forces:R:3 energy=-3.2901358657492863 pbc="F F F"
Pr       0.00000000       0.00000000       0.00000000       0.00000000       0.00000000      -0.64871532
Pr       0.00000000       0.00000000       3.07979798       0.00000000       0.00000000       0.64871532
2
Properties=species:S:1:pos:R:3:forces:R:3 energy=-3.3225835122162986 pbc="F F F"
Pr       0.00000000       0.00000000       0.00000000       0.00000000       0.00000000      -0.44589096
Pr       0.00000000       0.00000000       3.13939394       0.00000000       0.00000000       0.44589096
2
Properties=species:S:1:pos:R:3:forces:R:3 energy=-3.343996007574641 pbc="F F F"
Pr       0.00000000       0.00000000       0.00000000       0.00000000       0.00000000      -0.27859896
Pr       0.00000000       0.00000000       3.19898990       0.00000000       0.00000000       0.27859896
2
Properties=species:S:1:pos:R:3:forces:R:3 energy=-3.356458562700673 pbc="F F F"
Pr       0.00000000       0.00000000       0.00000000       0.00000000       0.00000000      -0.14488970
Pr       0.00000000       0.00000000       3.25858586       0.00000000       0.00000000       0.14488970
2
Properties=species:S:1:pos:R:3:forces:R:3 energy=-3.3618550871622586 pbc="F F F"
Pr       0.00000000       0.00000000       0.00000000       0.00000000       0.00000000      -0.04099725
Pr       0.00000000       0.00000000       3.31818182       0.00000000       0.00000000       0.04099725
2
Properties=species:S:1:pos:R:3:forces:R:3 energy=-3.3618804222581304 pbc="F F F"
Pr       0.00000000       0.00000000       0.00000000       0.00000000       0.00000000       0.03588070
Pr       0.00000000       0.00000000       3.37777778       0.00000000       0.00000000      -0.03588070
2
Properties=species:S:1:pos:R:3:forces:R:3 energy=-3.358041459418959 pbc="F F F"
Pr       0.00000000       0.00000000       0.00000000       0.00000000       0.00000000       0.08975881
Pr       0.00000000       0.00000000       3.43737374       0.00000000       0.00000000      -0.08975881
2
Properties=species:S:1:pos:R:3:forces:R:3 energy=-3.35147108501663 pbc="F F F"
Pr       0.00000000       0.00000000       0.00000000       0.00000000       0.00000000       0.12924948
Pr       0.00000000       0.00000000       3.49696970       0.00000000       0.00000000      -0.12924948
2
Properties=species:S:1:pos:R:3:forces:R:3 energy=-3.3427106539210865 pbc="F F F"
Pr       0.00000000       0.00000000       0.00000000       0.00000000       0.00000000       0.16482781
Pr       0.00000000       0.00000000       3.55656566       0.00000000       0.00000000      -0.16482781
2
Properties=species:S:1:pos:R:3:forces:R:3 energy=-3.3317743038320504 pbc="F F F"
Pr       0.00000000       0.00000000       0.00000000       0.00000000       0.00000000       0.20285633
Pr       0.00000000       0.00000000       3.61616162       0.00000000       0.00000000      -0.20285633
2
Properties=species:S:1:pos:R:3:forces:R:3 energy=-3.318464903573774 pbc="F F F"
Pr       0.00000000       0.00000000       0.00000000       0.00000000       0.00000000       0.24413109
Pr       0.00000000       0.00000000       3.67575758       0.00000000       0.00000000      -0.24413109
2
Properties=species:S:1:pos:R:3:forces:R:3 energy=-3.302644677861322 pbc="F F F"
Pr       0.00000000       0.00000000       0.00000000       0.00000000       0.00000000       0.28682837
Pr       0.00000000       0.00000000       3.73535354       0.00000000       0.00000000      -0.28682837
2
Properties=species:S:1:pos:R:3:forces:R:3 energy=-3.284279573827052 pbc="F F F"
Pr       0.00000000       0.00000000       0.00000000       0.00000000       0.00000000       0.32937926
Pr       0.00000000       0.00000000       3.79494949       0.00000000       0.00000000      -0.32937926
2
Properties=species:S:1:pos:R:3:forces:R:3 energy=-3.2634004391419915 pbc="F F F"
Pr       0.00000000       0.00000000       0.00000000       0.00000000       0.00000000       0.37121361
Pr       0.00000000       0.00000000       3.85454545       0.00000000       0.00000000      -0.37121361
2
Properties=species:S:1:pos:R:3:forces:R:3 energy=-3.2400522238512974 pbc="F F F"
Pr       0.00000000       0.00000000       0.00000000       0.00000000       0.00000000       0.41214675
Pr       0.00000000       0.00000000       3.91414141       0.00000000       0.00000000      -0.41214675
2
Properties=species:S:1:pos:R:3:forces:R:3 energy=-3.2143029055678944 pbc="F F F"
Pr       0.00000000       0.00000000       0.00000000       0.00000000       0.00000000       0.45171535
Pr       0.00000000       0.00000000       3.97373737       0.00000000       0.00000000      -0.45171535
2
Properties=species:S:1:pos:R:3:forces:R:3 energy=-3.186252810803734 pbc="F F F"
Pr       0.00000000       0.00000000       0.00000000       0.00000000       0.00000000       0.48906931
Pr       0.00000000       0.00000000       4.03333333       0.00000000       0.00000000      -0.48906931
2
Properties=species:S:1:pos:R:3:forces:R:3 energy=-3.1560728633127573 pbc="F F F"
Pr       0.00000000       0.00000000       0.00000000       0.00000000       0.00000000       0.52321970
Pr       0.00000000       0.00000000       4.09292929       0.00000000       0.00000000      -0.52321970
2
Properties=species:S:1:pos:R:3:forces:R:3 energy=-3.1239732142087666 pbc="F F F"
Pr       0.00000000       0.00000000       0.00000000       0.00000000       0.00000000       0.55324447
Pr       0.00000000       0.00000000       4.15252525       0.00000000       0.00000000      -0.55324447
2
Properties=species:S:1:pos:R:3:forces:R:3 energy=-3.0902299448462793 pbc="F F F"
Pr       0.00000000       0.00000000       0.00000000       0.00000000       0.00000000       0.57831711
Pr       0.00000000       0.00000000       4.21212121       0.00000000       0.00000000      -0.57831711
2
Properties=species:S:1:pos:R:3:forces:R:3 energy=-3.055154523899831 pbc="F F F"
Pr       0.00000000       0.00000000       0.00000000       0.00000000       0.00000000       0.59770709
Pr       0.00000000       0.00000000       4.27171717       0.00000000       0.00000000      -0.59770709
2
Properties=species:S:1:pos:R:3:forces:R:3 energy=-3.0191121552591778 pbc="F F F"
Pr       0.00000000       0.00000000       0.00000000       0.00000000       0.00000000       0.61086184
Pr       0.00000000       0.00000000       4.33131313       0.00000000       0.00000000      -0.61086184
2
Properties=species:S:1:pos:R:3:forces:R:3 energy=-2.9824758622779366 pbc="F F F"
Pr       0.00000000       0.00000000       0.00000000       0.00000000       0.00000000       0.61754203
Pr       0.00000000       0.00000000       4.39090909       0.00000000       0.00000000      -0.61754203
2
Properties=species:S:1:pos:R:3:forces:R:3 energy=-2.945631471557073 pbc="F F F"
Pr       0.00000000       0.00000000       0.00000000       0.00000000       0.00000000       0.61793941
Pr       0.00000000       0.00000000       4.45050505       0.00000000       0.00000000      -0.61793941
2
Properties=species:S:1:pos:R:3:forces:R:3 energy=-2.908937507938456 pbc="F F F"
Pr       0.00000000       0.00000000       0.00000000       0.00000000       0.00000000       0.61261892
Pr       0.00000000       0.00000000       4.51010101       0.00000000       0.00000000      -0.61261892
2
Properties=species:S:1:pos:R:3:forces:R:3 energy=-2.8727091087543677 pbc="F F F"
Pr       0.00000000       0.00000000       0.00000000       0.00000000       0.00000000       0.60240316
Pr       0.00000000       0.00000000       4.56969697       0.00000000       0.00000000      -0.60240316
2
Properties=species:S:1:pos:R:3:forces:R:3 energy=-2.8372094534299426 pbc="F F F"
Pr       0.00000000       0.00000000       0.00000000       0.00000000       0.00000000       0.58824325
Pr       0.00000000       0.00000000       4.62929293       0.00000000       0.00000000      -0.58824325
2
Properties=species:S:1:pos:R:3:forces:R:3 energy=-2.802654645896347 pbc="F F F"
Pr       0.00000000       0.00000000       0.00000000       0.00000000       0.00000000       0.57115620
Pr       0.00000000       0.00000000       4.68888889       0.00000000       0.00000000      -0.57115620
2
Properties=species:S:1:pos:R:3:forces:R:3 energy=-2.769172719266462 pbc="F F F"
Pr       0.00000000       0.00000000       0.00000000       0.00000000       0.00000000       0.55219442
Pr       0.00000000       0.00000000       4.74848485       0.00000000       0.00000000      -0.55219442
2
Properties=species:S:1:pos:R:3:forces:R:3 energy=-2.73685128153684 pbc="F F F"
Pr       0.00000000       0.00000000       0.00000000       0.00000000       0.00000000       0.53245246
Pr       0.00000000       0.00000000       4.80808081       0.00000000       0.00000000      -0.53245246
2
Properties=species:S:1:pos:R:3:forces:R:3 energy=-2.7056996600546834 pbc="F F F"
Pr       0.00000000       0.00000000       0.00000000       0.00000000       0.00000000       0.51296234
Pr       0.00000000       0.00000000       4.86767677       0.00000000       0.00000000      -0.51296234
2
Properties=species:S:1:pos:R:3:forces:R:3 energy=-2.675685854061702 pbc="F F F"
Pr       0.00000000       0.00000000       0.00000000       0.00000000       0.00000000       0.49452847
Pr       0.00000000       0.00000000       4.92727273       0.00000000       0.00000000      -0.49452847
2
Properties=species:S:1:pos:R:3:forces:R:3 energy=-2.6467281163520178 pbc="F F F"
Pr       0.00000000       0.00000000       0.00000000       0.00000000       0.00000000       0.47750995
Pr       0.00000000       0.00000000       4.98686869       0.00000000       0.00000000      -0.47750995
2
Properties=species:S:1:pos:R:3:forces:R:3 energy=-2.6187483970477494 pbc="F F F"
Pr       0.00000000       0.00000000       0.00000000       0.00000000       0.00000000       0.46164000
Pr       0.00000000       0.00000000       5.04646465       0.00000000       0.00000000      -0.46164000
2
Properties=species:S:1:pos:R:3:forces:R:3 energy=-2.5917017174334913 pbc="F F F"
Pr       0.00000000       0.00000000       0.00000000       0.00000000       0.00000000       0.44595987
Pr       0.00000000       0.00000000       5.10606061       0.00000000       0.00000000      -0.44595987
2
Properties=species:S:1:pos:R:3:forces:R:3 energy=-2.5656164016756424 pbc="F F F"
Pr       0.00000000       0.00000000       0.00000000       0.00000000       0.00000000       0.42896953
Pr       0.00000000       0.00000000       5.16565657       0.00000000       0.00000000      -0.42896953
2
Properties=species:S:1:pos:R:3:forces:R:3 energy=-2.540633088770361 pbc="F F F"
Pr       0.00000000       0.00000000       0.00000000       0.00000000       0.00000000       0.40891606
Pr       0.00000000       0.00000000       5.22525253       0.00000000       0.00000000      -0.40891606
2
Properties=species:S:1:pos:R:3:forces:R:3 energy=-2.5169721682326296 pbc="F F F"
Pr       0.00000000       0.00000000       0.00000000       0.00000000       0.00000000       0.38422108
Pr       0.00000000       0.00000000       5.28484848       0.00000000       0.00000000      -0.38422108
2
Properties=species:S:1:pos:R:3:forces:R:3 energy=-2.4949490768991853 pbc="F F F"
Pr       0.00000000       0.00000000       0.00000000       0.00000000       0.00000000       0.35390255
Pr       0.00000000       0.00000000       5.34444444       0.00000000       0.00000000      -0.35390255
2
Properties=species:S:1:pos:R:3:forces:R:3 energy=-2.47490547598663 pbc="F F F"
Pr       0.00000000       0.00000000       0.00000000       0.00000000       0.00000000       0.31786871
Pr       0.00000000       0.00000000       5.40404040       0.00000000       0.00000000      -0.31786871
2
Properties=species:S:1:pos:R:3:forces:R:3 energy=-2.457152011625513 pbc="F F F"
Pr       0.00000000       0.00000000       0.00000000       0.00000000       0.00000000       0.27708992
Pr       0.00000000       0.00000000       5.46363636       0.00000000       0.00000000      -0.27708992
2
Properties=species:S:1:pos:R:3:forces:R:3 energy=-2.4419357252068243 pbc="F F F"
Pr       0.00000000       0.00000000       0.00000000       0.00000000       0.00000000       0.23352060
Pr       0.00000000       0.00000000       5.52323232       0.00000000       0.00000000      -0.23352060
2
Properties=species:S:1:pos:R:3:forces:R:3 energy=-2.4293275071413643 pbc="F F F"
Pr       0.00000000       0.00000000       0.00000000       0.00000000       0.00000000       0.18975589
Pr       0.00000000       0.00000000       5.58282828       0.00000000       0.00000000      -0.18975589
2
Properties=species:S:1:pos:R:3:forces:R:3 energy=-2.4192647017574176 pbc="F F F"
Pr       0.00000000       0.00000000       0.00000000       0.00000000       0.00000000       0.14874960
Pr       0.00000000       0.00000000       5.64242424       0.00000000       0.00000000      -0.14874960
2
Properties=species:S:1:pos:R:3:forces:R:3 energy=-2.4114863904957637 pbc="F F F"
Pr       0.00000000       0.00000000       0.00000000       0.00000000       0.00000000       0.11318080
Pr       0.00000000       0.00000000       5.70202020       0.00000000       0.00000000      -0.11318080
2
Properties=species:S:1:pos:R:3:forces:R:3 energy=-2.4056227711983613 pbc="F F F"
Pr       0.00000000       0.00000000       0.00000000       0.00000000       0.00000000       0.08513145
Pr       0.00000000       0.00000000       5.76161616       0.00000000       0.00000000      -0.08513145
2
Properties=species:S:1:pos:R:3:forces:R:3 energy=-2.401173160242626 pbc="F F F"
Pr       0.00000000       0.00000000       0.00000000       0.00000000       0.00000000       0.06554560
Pr       0.00000000       0.00000000       5.82121212       0.00000000       0.00000000      -0.06554560
2
Properties=species:S:1:pos:R:3:forces:R:3 energy=-2.3976451529638947 pbc="F F F"
Pr       0.00000000       0.00000000       0.00000000       0.00000000       0.00000000       0.05412713
Pr       0.00000000       0.00000000       5.88080808       0.00000000       0.00000000      -0.05412713
2
Properties=species:S:1:pos:R:3:forces:R:3 energy=-2.394595454252991 pbc="F F F"
Pr       0.00000000       0.00000000       0.00000000       0.00000000       0.00000000       0.04916552
Pr       0.00000000       0.00000000       5.94040404       0.00000000       0.00000000      -0.04916552
2
Properties=species:S:1:pos:R:3:forces:R:3 energy=-2.391713871588157 pbc="F F F"
Pr       0.00000000       0.00000000       0.00000000       0.00000000       0.00000000       0.04782233
Pr       0.00000000       0.00000000       6.00000000       0.00000000       0.00000000      -0.04782233
