2
Properties=species:S:1:pos:R:3:forces:R:3 energy=-13052369.059967196 pbc="F F F"
Pu       0.00000000       0.00000000       0.00000000       0.00000000       0.00000000 68659656.00000000
Pu       0.00000000       0.00000000       0.10000000       0.00000000       0.00000000 -68659656.00000000
2
Properties=species:S:1:pos:R:3:forces:R:3 energy=-8646377.059967196 pbc="F F F"
Pu       0.00000000       0.00000000       0.00000000       0.00000000       0.00000000 74237664.00000000
Pu       0.00000000       0.00000000       0.15959596       0.00000000       0.00000000 -74237664.00000000
2
Properties=species:S:1:pos:R:3:forces:R:3 energy=-4670393.059967197 pbc="F F F"
Pu       0.00000000       0.00000000       0.00000000       0.00000000       0.00000000 56701364.00000000
Pu       0.00000000       0.00000000       0.21919192       0.00000000       0.00000000 -56701364.00000000
2
Properties=species:S:1:pos:R:3:forces:R:3 energy=-2015467.4349671963 pbc="F F F"
Pu       0.00000000       0.00000000       0.00000000       0.00000000       0.00000000 32559732.00000000
Pu       0.00000000       0.00000000       0.27878788       0.00000000       0.00000000 -32559732.00000000
2
Properties=species:S:1:pos:R:3:forces:R:3 energy=-673291.6849671964 pbc="F F F"
Pu       0.00000000       0.00000000       0.00000000       0.00000000       0.00000000 13947358.00000000
Pu       0.00000000       0.00000000       0.33838384       0.00000000       0.00000000 -13947358.00000000
2
Properties=species:S:1:pos:R:3:forces:R:3 energy=-170153.88809219637 pbc="F F F"
Pu       0.00000000       0.00000000       0.00000000       0.00000000       0.00000000 4385050.00000000
Pu       0.00000000       0.00000000       0.39797980       0.00000000       0.00000000 -4385050.00000000
2
Properties=species:S:1:pos:R:3:forces:R:3 energy=-31878.93496719004 pbc="F F F"
Pu       0.00000000       0.00000000       0.00000000       0.00000000       0.00000000  984287.18750000
Pu       0.00000000       0.00000000       0.45757576       0.00000000       0.00000000 -984287.18750000
2
Properties=species:S:1:pos:R:3:forces:R:3 energy=-3946.014068746207 pbc="F F F"
Pu       0.00000000       0.00000000       0.00000000       0.00000000       0.00000000  152783.25000000
Pu       0.00000000       0.00000000       0.51717172       0.00000000       0.00000000 -152783.25000000
2
Properties=species:S:1:pos:R:3:forces:R:3 energy=-371.82409681604355 pbc="F F F"
Pu       0.00000000       0.00000000       0.00000000       0.00000000       0.00000000   14291.62792969
Pu       0.00000000       0.00000000       0.57676768       0.00000000       0.00000000  -14291.62792969
2
Properties=species:S:1:pos:R:3:forces:R:3 energy=-52.490604517983876 pbc="F F F"
Pu       0.00000000       0.00000000       0.00000000       0.00000000       0.00000000    1274.17114258
Pu       0.00000000       0.00000000       0.63636364       0.00000000       0.00000000   -1274.17114258
2
Properties=species:S:1:pos:R:3:forces:R:3 energy=-25.121519174416004 pbc="F F F"
Pu       0.00000000       0.00000000       0.00000000       0.00000000       0.00000000      89.33061981
Pu       0.00000000       0.00000000       0.69595960       0.00000000       0.00000000     -89.33061981
2
Properties=species:S:1:pos:R:3:forces:R:3 energy=-23.32436374981747 pbc="F F F"
Pu       0.00000000       0.00000000       0.00000000       0.00000000       0.00000000     -12.37007999
Pu       0.00000000       0.00000000       0.75555556       0.00000000       0.00000000      12.37007999
2
Properties=species:S:1:pos:R:3:forces:R:3 energy=-24.946779222727923 pbc="F F F"
Pu       0.00000000       0.00000000       0.00000000       0.00000000       0.00000000     -31.08538628
Pu       0.00000000       0.00000000       0.81515152       0.00000000       0.00000000      31.08538628
2
Properties=species:S:1:pos:R:3:forces:R:3 energy=-27.183423878901948 pbc="F F F"
Pu       0.00000000       0.00000000       0.00000000       0.00000000       0.00000000     -34.62215805
Pu       0.00000000       0.00000000       0.87474747       0.00000000       0.00000000      34.62215805
2
Properties=species:S:1:pos:R:3:forces:R:3 energy=-28.616843914456542 pbc="F F F"
Pu       0.00000000       0.00000000       0.00000000       0.00000000       0.00000000     -13.56747437
Pu       0.00000000       0.00000000       0.93434343       0.00000000       0.00000000      13.56747437
2
Properties=species:S:1:pos:R:3:forces:R:3 energy=-28.687036055087702 pbc="F F F"
Pu       0.00000000       0.00000000       0.00000000       0.00000000       0.00000000       9.60829067
Pu       0.00000000       0.00000000       0.99393939       0.00000000       0.00000000      -9.60829067
2
Properties=species:S:1:pos:R:3:forces:R:3 energy=-27.79785848560988 pbc="F F F"
Pu       0.00000000       0.00000000       0.00000000       0.00000000       0.00000000      18.44603729
Pu       0.00000000       0.00000000       1.05353535       0.00000000       0.00000000     -18.44603729
2
Properties=species:S:1:pos:R:3:forces:R:3 energy=-26.69154633905374 pbc="F F F"
Pu       0.00000000       0.00000000       0.00000000       0.00000000       0.00000000      13.49399853
Pu       0.00000000       0.00000000       1.11313131       0.00000000       0.00000000     -13.49399853
2
Properties=species:S:1:pos:R:3:forces:R:3 energy=-26.251648339320262 pbc="F F F"
Pu       0.00000000       0.00000000       0.00000000       0.00000000       0.00000000       3.46505547
Pu       0.00000000       0.00000000       1.17272727       0.00000000       0.00000000      -3.46505547
2
Properties=species:S:1:pos:R:3:forces:R:3 energy=-25.902963439192256 pbc="F F F"
Pu       0.00000000       0.00000000       0.00000000       0.00000000       0.00000000       6.69245148
Pu       0.00000000       0.00000000       1.23232323       0.00000000       0.00000000      -6.69245148
2
Properties=species:S:1:pos:R:3:forces:R:3 energy=-25.740456575399314 pbc="F F F"
Pu       0.00000000       0.00000000       0.00000000       0.00000000       0.00000000       1.05530000
Pu       0.00000000       0.00000000       1.29191919       0.00000000       0.00000000      -1.05530000
2
Properties=species:S:1:pos:R:3:forces:R:3 energy=-25.70566747433187 pbc="F F F"
Pu       0.00000000       0.00000000       0.00000000       0.00000000       0.00000000       0.02541579
Pu       0.00000000       0.00000000       1.35151515       0.00000000       0.00000000      -0.02541579
2
Properties=species:S:1:pos:R:3:forces:R:3 energy=-25.64081831805682 pbc="F F F"
Pu       0.00000000       0.00000000       0.00000000       0.00000000       0.00000000       2.80714822
Pu       0.00000000       0.00000000       1.41111111       0.00000000       0.00000000      -2.80714822
2
Properties=species:S:1:pos:R:3:forces:R:3 energy=-25.43332969751459 pbc="F F F"
Pu       0.00000000       0.00000000       0.00000000       0.00000000       0.00000000       3.15735984
Pu       0.00000000       0.00000000       1.47070707       0.00000000       0.00000000      -3.15735984
2
Properties=species:S:1:pos:R:3:forces:R:3 energy=-25.275176201912608 pbc="F F F"
Pu       0.00000000       0.00000000       0.00000000       0.00000000       0.00000000       2.95133901
Pu       0.00000000       0.00000000       1.53030303       0.00000000       0.00000000      -2.95133901
2
Properties=species:S:1:pos:R:3:forces:R:3 energy=-25.055619007286325 pbc="F F F"
Pu       0.00000000       0.00000000       0.00000000       0.00000000       0.00000000       4.45035744
Pu       0.00000000       0.00000000       1.58989899       0.00000000       0.00000000      -4.45035744
2
Properties=species:S:1:pos:R:3:forces:R:3 energy=-24.72801764148985 pbc="F F F"
Pu       0.00000000       0.00000000       0.00000000       0.00000000       0.00000000       6.28959274
Pu       0.00000000       0.00000000       1.64949495       0.00000000       0.00000000      -6.28959274
2
Properties=species:S:1:pos:R:3:forces:R:3 energy=-24.332906995304327 pbc="F F F"
Pu       0.00000000       0.00000000       0.00000000       0.00000000       0.00000000       6.72569990
Pu       0.00000000       0.00000000       1.70909091       0.00000000       0.00000000      -6.72569990
2
Properties=species:S:1:pos:R:3:forces:R:3 energy=-23.95965959591151 pbc="F F F"
Pu       0.00000000       0.00000000       0.00000000       0.00000000       0.00000000       5.61258221
Pu       0.00000000       0.00000000       1.76868687       0.00000000       0.00000000      -5.61258221
2
Properties=species:S:1:pos:R:3:forces:R:3 energy=-23.653946798618136 pbc="F F F"
Pu       0.00000000       0.00000000       0.00000000       0.00000000       0.00000000       4.78804255
Pu       0.00000000       0.00000000       1.82828283       0.00000000       0.00000000      -4.78804255
2
Properties=species:S:1:pos:R:3:forces:R:3 energy=-23.38891111961962 pbc="F F F"
Pu       0.00000000       0.00000000       0.00000000       0.00000000       0.00000000       4.13115835
Pu       0.00000000       0.00000000       1.88787879       0.00000000       0.00000000      -4.13115835
2
Properties=species:S:1:pos:R:3:forces:R:3 energy=-23.16289108719439 pbc="F F F"
Pu       0.00000000       0.00000000       0.00000000       0.00000000       0.00000000       3.47990370
Pu       0.00000000       0.00000000       1.94747475       0.00000000       0.00000000      -3.47990370
2
Properties=species:S:1:pos:R:3:forces:R:3 energy=-22.984641298518515 pbc="F F F"
Pu       0.00000000       0.00000000       0.00000000       0.00000000       0.00000000       2.29527473
Pu       0.00000000       0.00000000       2.00707071       0.00000000       0.00000000      -2.29527473
2
Properties=species:S:1:pos:R:3:forces:R:3 energy=-22.906487797593474 pbc="F F F"
Pu       0.00000000       0.00000000       0.00000000       0.00000000       0.00000000       0.38198188
Pu       0.00000000       0.00000000       2.06666667       0.00000000       0.00000000      -0.38198188
2
Properties=species:S:1:pos:R:3:forces:R:3 energy=-22.91651324207826 pbc="F F F"
Pu       0.00000000       0.00000000       0.00000000       0.00000000       0.00000000      -0.54487467
Pu       0.00000000       0.00000000       2.12626263       0.00000000       0.00000000       0.54487467
2
Properties=species:S:1:pos:R:3:forces:R:3 energy=-22.965866473069457 pbc="F F F"
Pu       0.00000000       0.00000000       0.00000000       0.00000000       0.00000000      -1.13892329
Pu       0.00000000       0.00000000       2.18585859       0.00000000       0.00000000       1.13892329
2
Properties=species:S:1:pos:R:3:forces:R:3 energy=-23.04967020370799 pbc="F F F"
Pu       0.00000000       0.00000000       0.00000000       0.00000000       0.00000000      -1.61034441
Pu       0.00000000       0.00000000       2.24545455       0.00000000       0.00000000       1.61034441
2
Properties=species:S:1:pos:R:3:forces:R:3 energy=-23.151599240640646 pbc="F F F"
Pu       0.00000000       0.00000000       0.00000000       0.00000000       0.00000000      -1.75909317
Pu       0.00000000       0.00000000       2.30505051       0.00000000       0.00000000       1.75909317
2
Properties=species:S:1:pos:R:3:forces:R:3 energy=-23.253348625989794 pbc="F F F"
Pu       0.00000000       0.00000000       0.00000000       0.00000000       0.00000000      -1.63043916
Pu       0.00000000       0.00000000       2.36464646       0.00000000       0.00000000       1.63043916
2
Properties=species:S:1:pos:R:3:forces:R:3 energy=-23.346407789162754 pbc="F F F"
Pu       0.00000000       0.00000000       0.00000000       0.00000000       0.00000000      -1.50952876
Pu       0.00000000       0.00000000       2.42424242       0.00000000       0.00000000       1.50952876
2
Properties=species:S:1:pos:R:3:forces:R:3 energy=-23.435468953516068 pbc="F F F"
Pu       0.00000000       0.00000000       0.00000000       0.00000000       0.00000000      -1.49012744
Pu       0.00000000       0.00000000       2.48383838       0.00000000       0.00000000       1.49012744
2
Properties=species:S:1:pos:R:3:forces:R:3 energy=-23.523260090096688 pbc="F F F"
Pu       0.00000000       0.00000000       0.00000000       0.00000000       0.00000000      -1.44331205
Pu       0.00000000       0.00000000       2.54343434       0.00000000       0.00000000       1.44331205
2
Properties=species:S:1:pos:R:3:forces:R:3 energy=-23.607449556907994 pbc="F F F"
Pu       0.00000000       0.00000000       0.00000000       0.00000000       0.00000000      -1.39343345
Pu       0.00000000       0.00000000       2.60303030       0.00000000       0.00000000       1.39343345
2
Properties=species:S:1:pos:R:3:forces:R:3 energy=-23.690846650083227 pbc="F F F"
Pu       0.00000000       0.00000000       0.00000000       0.00000000       0.00000000      -1.41202092
Pu       0.00000000       0.00000000       2.66262626       0.00000000       0.00000000       1.41202092
2
Properties=species:S:1:pos:R:3:forces:R:3 energy=-23.775064155956937 pbc="F F F"
Pu       0.00000000       0.00000000       0.00000000       0.00000000       0.00000000      -1.39709020
Pu       0.00000000       0.00000000       2.72222222       0.00000000       0.00000000       1.39709020
2
Properties=species:S:1:pos:R:3:forces:R:3 energy=-23.855063669764313 pbc="F F F"
Pu       0.00000000       0.00000000       0.00000000       0.00000000       0.00000000      -1.27255952
Pu       0.00000000       0.00000000       2.78181818       0.00000000       0.00000000       1.27255952
2
Properties=species:S:1:pos:R:3:forces:R:3 energy=-23.92588937895567 pbc="F F F"
Pu       0.00000000       0.00000000       0.00000000       0.00000000       0.00000000      -1.10365331
Pu       0.00000000       0.00000000       2.84141414       0.00000000       0.00000000       1.10365331
2
Properties=species:S:1:pos:R:3:forces:R:3 energy=-23.98686521854917 pbc="F F F"
Pu       0.00000000       0.00000000       0.00000000       0.00000000       0.00000000      -0.94569600
Pu       0.00000000       0.00000000       2.90101010       0.00000000       0.00000000       0.94569600
2
Properties=species:S:1:pos:R:3:forces:R:3 energy=-24.03887054973468 pbc="F F F"
Pu       0.00000000       0.00000000       0.00000000       0.00000000       0.00000000      -0.80051506
Pu       0.00000000       0.00000000       2.96060606       0.00000000       0.00000000       0.80051506
2
Properties=species:S:1:pos:R:3:forces:R:3 energy=-24.082261041838333 pbc="F F F"
Pu       0.00000000       0.00000000       0.00000000       0.00000000       0.00000000      -0.65482384
Pu       0.00000000       0.00000000       3.02020202       0.00000000       0.00000000       0.65482384
2
Properties=species:S:1:pos:R:3:forces:R:3 energy=-24.116853945407907 pbc="F F F"
Pu       0.00000000       0.00000000       0.00000000       0.00000000       0.00000000      -0.50638437
Pu       0.00000000       0.00000000       3.07979798       0.00000000       0.00000000       0.50638437
2
Properties=species:S:1:pos:R:3:forces:R:3 energy=-24.142795117903244 pbc="F F F"
Pu       0.00000000       0.00000000       0.00000000       0.00000000       0.00000000      -0.36664510
Pu       0.00000000       0.00000000       3.13939394       0.00000000       0.00000000       0.36664510
2
Properties=species:S:1:pos:R:3:forces:R:3 energy=-24.160923871511102 pbc="F F F"
Pu       0.00000000       0.00000000       0.00000000       0.00000000       0.00000000      -0.24524958
Pu       0.00000000       0.00000000       3.19898990       0.00000000       0.00000000       0.24524958
2
Properties=species:S:1:pos:R:3:forces:R:3 energy=-24.172463354478783 pbc="F F F"
Pu       0.00000000       0.00000000       0.00000000       0.00000000       0.00000000      -0.14588398
Pu       0.00000000       0.00000000       3.25858586       0.00000000       0.00000000       0.14588398
2
Properties=species:S:1:pos:R:3:forces:R:3 energy=-24.178794449986622 pbc="F F F"
Pu       0.00000000       0.00000000       0.00000000       0.00000000       0.00000000      -0.07065556
Pu       0.00000000       0.00000000       3.31818182       0.00000000       0.00000000       0.07065556
2
Properties=species:S:1:pos:R:3:forces:R:3 energy=-24.18139614686538 pbc="F F F"
Pu       0.00000000       0.00000000       0.00000000       0.00000000       0.00000000      -0.02094214
Pu       0.00000000       0.00000000       3.37777778       0.00000000       0.00000000       0.02094214
2
Properties=species:S:1:pos:R:3:forces:R:3 energy=-24.181762807677234 pbc="F F F"
Pu       0.00000000       0.00000000       0.00000000       0.00000000       0.00000000       0.00514468
Pu       0.00000000       0.00000000       3.43737374       0.00000000       0.00000000      -0.00514468
2
Properties=species:S:1:pos:R:3:forces:R:3 energy=-24.18110086578597 pbc="F F F"
Pu       0.00000000       0.00000000       0.00000000       0.00000000       0.00000000       0.01527520
Pu       0.00000000       0.00000000       3.49696970       0.00000000       0.00000000      -0.01527520
2
Properties=species:S:1:pos:R:3:forces:R:3 energy=-24.180036891828443 pbc="F F F"
Pu       0.00000000       0.00000000       0.00000000       0.00000000       0.00000000       0.02048260
Pu       0.00000000       0.00000000       3.55656566       0.00000000       0.00000000      -0.02048260
2
Properties=species:S:1:pos:R:3:forces:R:3 energy=-24.17856026322541 pbc="F F F"
Pu       0.00000000       0.00000000       0.00000000       0.00000000       0.00000000       0.03063492
Pu       0.00000000       0.00000000       3.61616162       0.00000000       0.00000000      -0.03063492
2
Properties=species:S:1:pos:R:3:forces:R:3 energy=-24.176151150039686 pbc="F F F"
Pu       0.00000000       0.00000000       0.00000000       0.00000000       0.00000000       0.05253182
Pu       0.00000000       0.00000000       3.67575758       0.00000000       0.00000000      -0.05253182
2
Properties=species:S:1:pos:R:3:forces:R:3 energy=-24.17201835451235 pbc="F F F"
Pu       0.00000000       0.00000000       0.00000000       0.00000000       0.00000000       0.08823854
Pu       0.00000000       0.00000000       3.73535354       0.00000000       0.00000000      -0.08823854
2
Properties=species:S:1:pos:R:3:forces:R:3 energy=-24.165459143399488 pbc="F F F"
Pu       0.00000000       0.00000000       0.00000000       0.00000000       0.00000000       0.13243718
Pu       0.00000000       0.00000000       3.79494949       0.00000000       0.00000000      -0.13243718
2
Properties=species:S:1:pos:R:3:forces:R:3 energy=-24.156266368104102 pbc="F F F"
Pu       0.00000000       0.00000000       0.00000000       0.00000000       0.00000000       0.17506009
Pu       0.00000000       0.00000000       3.85454545       0.00000000       0.00000000      -0.17506009
2
Properties=species:S:1:pos:R:3:forces:R:3 energy=-24.144771198741537 pbc="F F F"
Pu       0.00000000       0.00000000       0.00000000       0.00000000       0.00000000       0.20910037
Pu       0.00000000       0.00000000       3.91414141       0.00000000       0.00000000      -0.20910037
2
Properties=species:S:1:pos:R:3:forces:R:3 energy=-24.13152920653666 pbc="F F F"
Pu       0.00000000       0.00000000       0.00000000       0.00000000       0.00000000       0.23390689
Pu       0.00000000       0.00000000       3.97373737       0.00000000       0.00000000      -0.23390689
2
Properties=species:S:1:pos:R:3:forces:R:3 energy=-24.11702180170159 pbc="F F F"
Pu       0.00000000       0.00000000       0.00000000       0.00000000       0.00000000       0.25211129
Pu       0.00000000       0.00000000       4.03333333       0.00000000       0.00000000      -0.25211129
2
Properties=species:S:1:pos:R:3:forces:R:3 energy=-24.101562402282358 pbc="F F F"
Pu       0.00000000       0.00000000       0.00000000       0.00000000       0.00000000       0.26612279
Pu       0.00000000       0.00000000       4.09292929       0.00000000       0.00000000      -0.26612279
2
Properties=species:S:1:pos:R:3:forces:R:3 energy=-24.08536302977293 pbc="F F F"
Pu       0.00000000       0.00000000       0.00000000       0.00000000       0.00000000       0.27698752
Pu       0.00000000       0.00000000       4.15252525       0.00000000       0.00000000      -0.27698752
2
Properties=species:S:1:pos:R:3:forces:R:3 energy=-24.06861008060204 pbc="F F F"
Pu       0.00000000       0.00000000       0.00000000       0.00000000       0.00000000       0.28468606
Pu       0.00000000       0.00000000       4.21212121       0.00000000       0.00000000      -0.28468606
2
Properties=species:S:1:pos:R:3:forces:R:3 energy=-24.051503663828925 pbc="F F F"
Pu       0.00000000       0.00000000       0.00000000       0.00000000       0.00000000       0.28876373
Pu       0.00000000       0.00000000       4.27171717       0.00000000       0.00000000      -0.28876373
2
Properties=species:S:1:pos:R:3:forces:R:3 energy=-24.034271741022604 pbc="F F F"
Pu       0.00000000       0.00000000       0.00000000       0.00000000       0.00000000       0.28886235
Pu       0.00000000       0.00000000       4.33131313       0.00000000       0.00000000      -0.28886235
2
Properties=species:S:1:pos:R:3:forces:R:3 energy=-24.017151336281035 pbc="F F F"
Pu       0.00000000       0.00000000       0.00000000       0.00000000       0.00000000       0.28505561
Pu       0.00000000       0.00000000       4.39090909       0.00000000       0.00000000      -0.28505561
2
Properties=species:S:1:pos:R:3:forces:R:3 energy=-24.000360014061247 pbc="F F F"
Pu       0.00000000       0.00000000       0.00000000       0.00000000       0.00000000       0.27795115
Pu       0.00000000       0.00000000       4.45050505       0.00000000       0.00000000      -0.27795115
2
Properties=species:S:1:pos:R:3:forces:R:3 energy=-23.984065164876533 pbc="F F F"
Pu       0.00000000       0.00000000       0.00000000       0.00000000       0.00000000       0.26855659
Pu       0.00000000       0.00000000       4.51010101       0.00000000       0.00000000      -0.26855659
2
Properties=species:S:1:pos:R:3:forces:R:3 energy=-23.968371135365 pbc="F F F"
Pu       0.00000000       0.00000000       0.00000000       0.00000000       0.00000000       0.25802755
Pu       0.00000000       0.00000000       4.56969697       0.00000000       0.00000000      -0.25802755
2
Properties=species:S:1:pos:R:3:forces:R:3 energy=-23.953313867375392 pbc="F F F"
Pu       0.00000000       0.00000000       0.00000000       0.00000000       0.00000000       0.24742398
Pu       0.00000000       0.00000000       4.62929293       0.00000000       0.00000000      -0.24742398
2
Properties=species:S:1:pos:R:3:forces:R:3 energy=-23.93886864773886 pbc="F F F"
Pu       0.00000000       0.00000000       0.00000000       0.00000000       0.00000000       0.23754366
Pu       0.00000000       0.00000000       4.68888889       0.00000000       0.00000000      -0.23754366
2
Properties=species:S:1:pos:R:3:forces:R:3 energy=-23.924976779471596 pbc="F F F"
Pu       0.00000000       0.00000000       0.00000000       0.00000000       0.00000000       0.22886139
Pu       0.00000000       0.00000000       4.74848485       0.00000000       0.00000000      -0.22886139
2
Properties=species:S:1:pos:R:3:forces:R:3 energy=-23.91156108765403 pbc="F F F"
Pu       0.00000000       0.00000000       0.00000000       0.00000000       0.00000000       0.22155066
Pu       0.00000000       0.00000000       4.80808081       0.00000000       0.00000000      -0.22155066
2
Properties=species:S:1:pos:R:3:forces:R:3 energy=-23.89854287649226 pbc="F F F"
Pu       0.00000000       0.00000000       0.00000000       0.00000000       0.00000000       0.21553972
Pu       0.00000000       0.00000000       4.86767677       0.00000000       0.00000000      -0.21553972
2
Properties=species:S:1:pos:R:3:forces:R:3 energy=-23.88584793013231 pbc="F F F"
Pu       0.00000000       0.00000000       0.00000000       0.00000000       0.00000000       0.21056452
Pu       0.00000000       0.00000000       4.92727273       0.00000000       0.00000000      -0.21056452
2
Properties=species:S:1:pos:R:3:forces:R:3 energy=-23.873432949443906 pbc="F F F"
Pu       0.00000000       0.00000000       0.00000000       0.00000000       0.00000000       0.20619543
Pu       0.00000000       0.00000000       4.98686869       0.00000000       0.00000000      -0.20619543
2
Properties=species:S:1:pos:R:3:forces:R:3 energy=-23.86127435501883 pbc="F F F"
Pu       0.00000000       0.00000000       0.00000000       0.00000000       0.00000000       0.20187512
Pu       0.00000000       0.00000000       5.04646465       0.00000000       0.00000000      -0.20187512
2
Properties=species:S:1:pos:R:3:forces:R:3 energy=-23.849383355890634 pbc="F F F"
Pu       0.00000000       0.00000000       0.00000000       0.00000000       0.00000000       0.19695407
Pu       0.00000000       0.00000000       5.10606061       0.00000000       0.00000000      -0.19695407
2
Properties=species:S:1:pos:R:3:forces:R:3 energy=-23.837821278015813 pbc="F F F"
Pu       0.00000000       0.00000000       0.00000000       0.00000000       0.00000000       0.19074506
Pu       0.00000000       0.00000000       5.16565657       0.00000000       0.00000000      -0.19074506
2
Properties=species:S:1:pos:R:3:forces:R:3 energy=-23.82668618749078 pbc="F F F"
Pu       0.00000000       0.00000000       0.00000000       0.00000000       0.00000000       0.18263683
Pu       0.00000000       0.00000000       5.22525253       0.00000000       0.00000000      -0.18263683
2
Properties=species:S:1:pos:R:3:forces:R:3 energy=-23.816101300740243 pbc="F F F"
Pu       0.00000000       0.00000000       0.00000000       0.00000000       0.00000000       0.17217541
Pu       0.00000000       0.00000000       5.28484848       0.00000000       0.00000000      -0.17217541
2
Properties=species:S:1:pos:R:3:forces:R:3 energy=-23.80621317853891 pbc="F F F"
Pu       0.00000000       0.00000000       0.00000000       0.00000000       0.00000000       0.15919770
Pu       0.00000000       0.00000000       5.34444444       0.00000000       0.00000000      -0.15919770
2
Properties=species:S:1:pos:R:3:forces:R:3 energy=-23.797172456120165 pbc="F F F"
Pu       0.00000000       0.00000000       0.00000000       0.00000000       0.00000000       0.14387739
Pu       0.00000000       0.00000000       5.40404040       0.00000000       0.00000000      -0.14387739
2
Properties=species:S:1:pos:R:3:forces:R:3 energy=-23.78910138657109 pbc="F F F"
Pu       0.00000000       0.00000000       0.00000000       0.00000000       0.00000000       0.12674701
Pu       0.00000000       0.00000000       5.46363636       0.00000000       0.00000000      -0.12674701
2
Properties=species:S:1:pos:R:3:forces:R:3 energy=-23.782086186095366 pbc="F F F"
Pu       0.00000000       0.00000000       0.00000000       0.00000000       0.00000000       0.10866085
Pu       0.00000000       0.00000000       5.52323232       0.00000000       0.00000000      -0.10866085
2
Properties=species:S:1:pos:R:3:forces:R:3 energy=-23.776148309742176 pbc="F F F"
Pu       0.00000000       0.00000000       0.00000000       0.00000000       0.00000000       0.09067188
Pu       0.00000000       0.00000000       5.58282828       0.00000000       0.00000000      -0.09067188
2
Properties=species:S:1:pos:R:3:forces:R:3 energy=-23.771251973094785 pbc="F F F"
Pu       0.00000000       0.00000000       0.00000000       0.00000000       0.00000000       0.07392316
Pu       0.00000000       0.00000000       5.64242424       0.00000000       0.00000000      -0.07392316
2
Properties=species:S:1:pos:R:3:forces:R:3 energy=-23.767290750144962 pbc="F F F"
Pu       0.00000000       0.00000000       0.00000000       0.00000000       0.00000000       0.05944022
Pu       0.00000000       0.00000000       5.70202020       0.00000000       0.00000000      -0.05944022
2
Properties=species:S:1:pos:R:3:forces:R:3 energy=-23.76410663410801 pbc="F F F"
Pu       0.00000000       0.00000000       0.00000000       0.00000000       0.00000000       0.04800427
Pu       0.00000000       0.00000000       5.76161616       0.00000000       0.00000000      -0.04800427
2
Properties=species:S:1:pos:R:3:forces:R:3 energy=-23.761501253431373 pbc="F F F"
Pu       0.00000000       0.00000000       0.00000000       0.00000000       0.00000000       0.03996037
Pu       0.00000000       0.00000000       5.82121212       0.00000000       0.00000000      -0.03996037
2
Properties=species:S:1:pos:R:3:forces:R:3 energy=-23.759277953841796 pbc="F F F"
Pu       0.00000000       0.00000000       0.00000000       0.00000000       0.00000000       0.03517296
Pu       0.00000000       0.00000000       5.88080808       0.00000000       0.00000000      -0.03517296
2
Properties=species:S:1:pos:R:3:forces:R:3 energy=-23.757258755406763 pbc="F F F"
Pu       0.00000000       0.00000000       0.00000000       0.00000000       0.00000000       0.03294963
Pu       0.00000000       0.00000000       5.94040404       0.00000000       0.00000000      -0.03294963
2
Properties=species:S:1:pos:R:3:forces:R:3 energy=-23.755322562863604 pbc="F F F"
Pu       0.00000000       0.00000000       0.00000000       0.00000000       0.00000000       0.03215090
Pu       0.00000000       0.00000000       6.00000000       0.00000000       0.00000000      -0.03215090
