2
Properties=species:S:1:pos:R:3:forces:R:3 energy=10065003.947423873 pbc="F F F"
Ru       0.00000000       0.00000000       0.00000000       0.00000000       0.00000000 -48301224.00000000
Ru       0.00000000       0.00000000       0.10000000       0.00000000       0.00000000 48301224.00000000
2
Properties=species:S:1:pos:R:3:forces:R:3 energy=7000135.447423874 pbc="F F F"
Ru       0.00000000       0.00000000       0.00000000       0.00000000       0.00000000 -51787104.00000000
Ru       0.00000000       0.00000000       0.15959596       0.00000000       0.00000000 51787104.00000000
2
Properties=species:S:1:pos:R:3:forces:R:3 energy=4177372.1974238744 pbc="F F F"
Ru       0.00000000       0.00000000       0.00000000       0.00000000       0.00000000 -41253440.00000000
Ru       0.00000000       0.00000000       0.21919192       0.00000000       0.00000000 41253440.00000000
2
Properties=species:S:1:pos:R:3:forces:R:3 energy=2171825.9474238777 pbc="F F F"
Ru       0.00000000       0.00000000       0.00000000       0.00000000       0.00000000 -26136846.00000000
Ru       0.00000000       0.00000000       0.27878788       0.00000000       0.00000000 26136846.00000000
2
Properties=species:S:1:pos:R:3:forces:R:3 energy=998168.5099238775 pbc="F F F"
Ru       0.00000000       0.00000000       0.00000000       0.00000000       0.00000000 -13955218.00000000
Ru       0.00000000       0.00000000       0.33838384       0.00000000       0.00000000 13955218.00000000
2
Properties=species:S:1:pos:R:3:forces:R:3 energy=427099.7286738839 pbc="F F F"
Ru       0.00000000       0.00000000       0.00000000       0.00000000       0.00000000 -6284671.50000000
Ru       0.00000000       0.00000000       0.39797980       0.00000000       0.00000000 6284671.50000000
2
Properties=species:S:1:pos:R:3:forces:R:3 energy=176645.05679889658 pbc="F F F"
Ru       0.00000000       0.00000000       0.00000000       0.00000000       0.00000000 -2552646.50000000
Ru       0.00000000       0.00000000       0.45757576       0.00000000       0.00000000 2552646.50000000
2
Properties=species:S:1:pos:R:3:forces:R:3 energy=82427.71304892507 pbc="F F F"
Ru       0.00000000       0.00000000       0.00000000       0.00000000       0.00000000 -811616.12500000
Ru       0.00000000       0.00000000       0.51717172       0.00000000       0.00000000  811616.12500000
2
Properties=species:S:1:pos:R:3:forces:R:3 energy=50938.20914272259 pbc="F F F"
Ru       0.00000000       0.00000000       0.00000000       0.00000000       0.00000000 -457911.46875000
Ru       0.00000000       0.00000000       0.57676768       0.00000000       0.00000000  457911.46875000
2
Properties=species:S:1:pos:R:3:forces:R:3 energy=25549.09781467362 pbc="F F F"
Ru       0.00000000       0.00000000       0.00000000       0.00000000       0.00000000 -381622.21875000
Ru       0.00000000       0.00000000       0.63636364       0.00000000       0.00000000  381622.21875000
2
Properties=species:S:1:pos:R:3:forces:R:3 energy=9833.052892928501 pbc="F F F"
Ru       0.00000000       0.00000000       0.00000000       0.00000000       0.00000000 -156405.25000000
Ru       0.00000000       0.00000000       0.69595960       0.00000000       0.00000000  156405.25000000
2
Properties=species:S:1:pos:R:3:forces:R:3 energy=3436.718176324863 pbc="F F F"
Ru       0.00000000       0.00000000       0.00000000       0.00000000       0.00000000  -64120.01953125
Ru       0.00000000       0.00000000       0.75555556       0.00000000       0.00000000   64120.01953125
2
Properties=species:S:1:pos:R:3:forces:R:3 energy=1206.7690799334475 pbc="F F F"
Ru       0.00000000       0.00000000       0.00000000       0.00000000       0.00000000  -18161.69335938
Ru       0.00000000       0.00000000       0.81515152       0.00000000       0.00000000   18161.69335938
2
Properties=species:S:1:pos:R:3:forces:R:3 energy=416.47202224929913 pbc="F F F"
Ru       0.00000000       0.00000000       0.00000000       0.00000000       0.00000000   -7698.89355469
Ru       0.00000000       0.00000000       0.87474747       0.00000000       0.00000000    7698.89355469
2
Properties=species:S:1:pos:R:3:forces:R:3 energy=201.3317640557872 pbc="F F F"
Ru       0.00000000       0.00000000       0.00000000       0.00000000       0.00000000   -1412.59362793
Ru       0.00000000       0.00000000       0.93434343       0.00000000       0.00000000    1412.59362793
2
Properties=species:S:1:pos:R:3:forces:R:3 energy=138.20739048343688 pbc="F F F"
Ru       0.00000000       0.00000000       0.00000000       0.00000000       0.00000000    -825.03942871
Ru       0.00000000       0.00000000       0.99393939       0.00000000       0.00000000     825.03942871
2
Properties=species:S:1:pos:R:3:forces:R:3 energy=95.12291894542811 pbc="F F F"
Ru       0.00000000       0.00000000       0.00000000       0.00000000       0.00000000    -661.57470703
Ru       0.00000000       0.00000000       1.05353535       0.00000000       0.00000000     661.57470703
2
Properties=species:S:1:pos:R:3:forces:R:3 energy=59.954501553194994 pbc="F F F"
Ru       0.00000000       0.00000000       0.00000000       0.00000000       0.00000000    -504.01736450
Ru       0.00000000       0.00000000       1.11313131       0.00000000       0.00000000     504.01736450
2
Properties=species:S:1:pos:R:3:forces:R:3 energy=34.90474460611192 pbc="F F F"
Ru       0.00000000       0.00000000       0.00000000       0.00000000       0.00000000    -328.78607178
Ru       0.00000000       0.00000000       1.17272727       0.00000000       0.00000000     328.78607178
2
Properties=species:S:1:pos:R:3:forces:R:3 energy=19.389539868727155 pbc="F F F"
Ru       0.00000000       0.00000000       0.00000000       0.00000000       0.00000000    -212.24050903
Ru       0.00000000       0.00000000       1.23232323       0.00000000       0.00000000     212.24050903
2
Properties=species:S:1:pos:R:3:forces:R:3 energy=9.176959608720782 pbc="F F F"
Ru       0.00000000       0.00000000       0.00000000       0.00000000       0.00000000    -128.37361145
Ru       0.00000000       0.00000000       1.29191919       0.00000000       0.00000000     128.37361145
2
Properties=species:S:1:pos:R:3:forces:R:3 energy=2.9501151721119845 pbc="F F F"
Ru       0.00000000       0.00000000       0.00000000       0.00000000       0.00000000     -82.51200867
Ru       0.00000000       0.00000000       1.35151515       0.00000000       0.00000000      82.51200867
2
Properties=species:S:1:pos:R:3:forces:R:3 energy=-1.073763407890261 pbc="F F F"
Ru       0.00000000       0.00000000       0.00000000       0.00000000       0.00000000     -54.02470398
Ru       0.00000000       0.00000000       1.41111111       0.00000000       0.00000000      54.02470398
2
Properties=species:S:1:pos:R:3:forces:R:3 energy=-3.636189164964527 pbc="F F F"
Ru       0.00000000       0.00000000       0.00000000       0.00000000       0.00000000     -32.44127655
Ru       0.00000000       0.00000000       1.47070707       0.00000000       0.00000000      32.44127655
2
Properties=species:S:1:pos:R:3:forces:R:3 energy=-5.0903503825692695 pbc="F F F"
Ru       0.00000000       0.00000000       0.00000000       0.00000000       0.00000000     -18.09183121
Ru       0.00000000       0.00000000       1.53030303       0.00000000       0.00000000      18.09183121
2
Properties=species:S:1:pos:R:3:forces:R:3 energy=-5.889716993031746 pbc="F F F"
Ru       0.00000000       0.00000000       0.00000000       0.00000000       0.00000000      -9.72473335
Ru       0.00000000       0.00000000       1.58989899       0.00000000       0.00000000       9.72473335
2
Properties=species:S:1:pos:R:3:forces:R:3 energy=-6.380654636730043 pbc="F F F"
Ru       0.00000000       0.00000000       0.00000000       0.00000000       0.00000000      -6.88837385
Ru       0.00000000       0.00000000       1.64949495       0.00000000       0.00000000       6.88837385
2
Properties=species:S:1:pos:R:3:forces:R:3 energy=-6.748452417830381 pbc="F F F"
Ru       0.00000000       0.00000000       0.00000000       0.00000000       0.00000000      -5.62977934
Ru       0.00000000       0.00000000       1.70909091       0.00000000       0.00000000       5.62977934
2
Properties=species:S:1:pos:R:3:forces:R:3 energy=-7.0566200303437085 pbc="F F F"
Ru       0.00000000       0.00000000       0.00000000       0.00000000       0.00000000      -4.92551374
Ru       0.00000000       0.00000000       1.76868687       0.00000000       0.00000000       4.92551374
2
Properties=species:S:1:pos:R:3:forces:R:3 energy=-7.370827427509138 pbc="F F F"
Ru       0.00000000       0.00000000       0.00000000       0.00000000       0.00000000      -5.58236742
Ru       0.00000000       0.00000000       1.82828283       0.00000000       0.00000000       5.58236742
2
Properties=species:S:1:pos:R:3:forces:R:3 energy=-7.687078029531493 pbc="F F F"
Ru       0.00000000       0.00000000       0.00000000       0.00000000       0.00000000      -4.97715759
Ru       0.00000000       0.00000000       1.88787879       0.00000000       0.00000000       4.97715759
2
Properties=species:S:1:pos:R:3:forces:R:3 energy=-7.96275214688984 pbc="F F F"
Ru       0.00000000       0.00000000       0.00000000       0.00000000       0.00000000      -4.22923613
Ru       0.00000000       0.00000000       1.94747475       0.00000000       0.00000000       4.22923613
2
Properties=species:S:1:pos:R:3:forces:R:3 energy=-8.19101601204235 pbc="F F F"
Ru       0.00000000       0.00000000       0.00000000       0.00000000       0.00000000      -3.43953705
Ru       0.00000000       0.00000000       2.00707071       0.00000000       0.00000000       3.43953705
2
Properties=species:S:1:pos:R:3:forces:R:3 energy=-8.3646717214332 pbc="F F F"
Ru       0.00000000       0.00000000       0.00000000       0.00000000       0.00000000      -2.30345225
Ru       0.00000000       0.00000000       2.06666667       0.00000000       0.00000000       2.30345225
2
Properties=species:S:1:pos:R:3:forces:R:3 energy=-8.465905613402198 pbc="F F F"
Ru       0.00000000       0.00000000       0.00000000       0.00000000       0.00000000      -1.10535717
Ru       0.00000000       0.00000000       2.12626263       0.00000000       0.00000000       1.10535717
2
Properties=species:S:1:pos:R:3:forces:R:3 energy=-8.497790145590553 pbc="F F F"
Ru       0.00000000       0.00000000       0.00000000       0.00000000       0.00000000      -0.01104053
Ru       0.00000000       0.00000000       2.18585859       0.00000000       0.00000000       0.01104053
2
Properties=species:S:1:pos:R:3:forces:R:3 energy=-8.471859580690484 pbc="F F F"
Ru       0.00000000       0.00000000       0.00000000       0.00000000       0.00000000       0.85810930
Ru       0.00000000       0.00000000       2.24545455       0.00000000       0.00000000      -0.85810930
2
Properties=species:S:1:pos:R:3:forces:R:3 energy=-8.400151494280005 pbc="F F F"
Ru       0.00000000       0.00000000       0.00000000       0.00000000       0.00000000       1.49613154
Ru       0.00000000       0.00000000       2.30505051       0.00000000       0.00000000      -1.49613154
2
Properties=species:S:1:pos:R:3:forces:R:3 energy=-8.29793711776941 pbc="F F F"
Ru       0.00000000       0.00000000       0.00000000       0.00000000       0.00000000       1.92162740
Ru       0.00000000       0.00000000       2.36464646       0.00000000       0.00000000      -1.92162740
2
Properties=species:S:1:pos:R:3:forces:R:3 energy=-8.170956510296119 pbc="F F F"
Ru       0.00000000       0.00000000       0.00000000       0.00000000       0.00000000       2.34317756
Ru       0.00000000       0.00000000       2.42424242       0.00000000       0.00000000      -2.34317756
2
Properties=species:S:1:pos:R:3:forces:R:3 energy=-8.019509489211252 pbc="F F F"
Ru       0.00000000       0.00000000       0.00000000       0.00000000       0.00000000       2.72083831
Ru       0.00000000       0.00000000       2.48383838       0.00000000       0.00000000      -2.72083831
2
Properties=species:S:1:pos:R:3:forces:R:3 energy=-7.849316024783777 pbc="F F F"
Ru       0.00000000       0.00000000       0.00000000       0.00000000       0.00000000       2.96571374
Ru       0.00000000       0.00000000       2.54343434       0.00000000       0.00000000      -2.96571374
2
Properties=species:S:1:pos:R:3:forces:R:3 energy=-7.669849972745069 pbc="F F F"
Ru       0.00000000       0.00000000       0.00000000       0.00000000       0.00000000       3.01795673
Ru       0.00000000       0.00000000       2.60303030       0.00000000       0.00000000      -3.01795673
2
Properties=species:S:1:pos:R:3:forces:R:3 energy=-7.494099057886041 pbc="F F F"
Ru       0.00000000       0.00000000       0.00000000       0.00000000       0.00000000       2.85057950
Ru       0.00000000       0.00000000       2.66262626       0.00000000       0.00000000      -2.85057950
2
Properties=species:S:1:pos:R:3:forces:R:3 energy=-7.332071649304134 pbc="F F F"
Ru       0.00000000       0.00000000       0.00000000       0.00000000       0.00000000       2.58153057
Ru       0.00000000       0.00000000       2.72222222       0.00000000       0.00000000      -2.58153057
2
Properties=species:S:1:pos:R:3:forces:R:3 energy=-7.186372578200347 pbc="F F F"
Ru       0.00000000       0.00000000       0.00000000       0.00000000       0.00000000       2.31066036
Ru       0.00000000       0.00000000       2.78181818       0.00000000       0.00000000      -2.31066036
2
Properties=species:S:1:pos:R:3:forces:R:3 energy=-7.0563500035848445 pbc="F F F"
Ru       0.00000000       0.00000000       0.00000000       0.00000000       0.00000000       2.05500412
Ru       0.00000000       0.00000000       2.84141414       0.00000000       0.00000000      -2.05500412
2
Properties=species:S:1:pos:R:3:forces:R:3 energy=-6.9411550940947535 pbc="F F F"
Ru       0.00000000       0.00000000       0.00000000       0.00000000       0.00000000       1.81394672
Ru       0.00000000       0.00000000       2.90101010       0.00000000       0.00000000      -1.81394672
2
Properties=species:S:1:pos:R:3:forces:R:3 energy=-6.8395986317607695 pbc="F F F"
Ru       0.00000000       0.00000000       0.00000000       0.00000000       0.00000000       1.60071361
Ru       0.00000000       0.00000000       2.96060606       0.00000000       0.00000000      -1.60071361
2
Properties=species:S:1:pos:R:3:forces:R:3 energy=-6.749392754191624 pbc="F F F"
Ru       0.00000000       0.00000000       0.00000000       0.00000000       0.00000000       1.43561435
Ru       0.00000000       0.00000000       3.02020202       0.00000000       0.00000000      -1.43561435
2
Properties=species:S:1:pos:R:3:forces:R:3 energy=-6.667443380859468 pbc="F F F"
Ru       0.00000000       0.00000000       0.00000000       0.00000000       0.00000000       1.32204258
Ru       0.00000000       0.00000000       3.07979798       0.00000000       0.00000000      -1.32204258
2
Properties=species:S:1:pos:R:3:forces:R:3 energy=-6.591137151040861 pbc="F F F"
Ru       0.00000000       0.00000000       0.00000000       0.00000000       0.00000000       1.24287951
Ru       0.00000000       0.00000000       3.13939394       0.00000000       0.00000000      -1.24287951
2
Properties=species:S:1:pos:R:3:forces:R:3 energy=-6.518930431566714 pbc="F F F"
Ru       0.00000000       0.00000000       0.00000000       0.00000000       0.00000000       1.18286443
Ru       0.00000000       0.00000000       3.19898990       0.00000000       0.00000000      -1.18286443
2
Properties=species:S:1:pos:R:3:forces:R:3 energy=-6.449905153860513 pbc="F F F"
Ru       0.00000000       0.00000000       0.00000000       0.00000000       0.00000000       1.13512206
Ru       0.00000000       0.00000000       3.25858586       0.00000000       0.00000000      -1.13512206
2
Properties=species:S:1:pos:R:3:forces:R:3 energy=-6.383498070523975 pbc="F F F"
Ru       0.00000000       0.00000000       0.00000000       0.00000000       0.00000000       1.09410250
Ru       0.00000000       0.00000000       3.31818182       0.00000000       0.00000000      -1.09410250
2
Properties=species:S:1:pos:R:3:forces:R:3 energy=-6.319466612811286 pbc="F F F"
Ru       0.00000000       0.00000000       0.00000000       0.00000000       0.00000000       1.05468440
Ru       0.00000000       0.00000000       3.37777778       0.00000000       0.00000000      -1.05468440
2
Properties=species:S:1:pos:R:3:forces:R:3 energy=-6.2578228430191105 pbc="F F F"
Ru       0.00000000       0.00000000       0.00000000       0.00000000       0.00000000       1.01359844
Ru       0.00000000       0.00000000       3.43737374       0.00000000       0.00000000      -1.01359844
2
Properties=species:S:1:pos:R:3:forces:R:3 energy=-6.198716443985314 pbc="F F F"
Ru       0.00000000       0.00000000       0.00000000       0.00000000       0.00000000       0.96943837
Ru       0.00000000       0.00000000       3.49696970       0.00000000       0.00000000      -0.96943837
2
Properties=species:S:1:pos:R:3:forces:R:3 energy=-6.142348061439056 pbc="F F F"
Ru       0.00000000       0.00000000       0.00000000       0.00000000       0.00000000       0.92144400
Ru       0.00000000       0.00000000       3.55656566       0.00000000       0.00000000      -0.92144400
2
Properties=species:S:1:pos:R:3:forces:R:3 energy=-6.088988428172269 pbc="F F F"
Ru       0.00000000       0.00000000       0.00000000       0.00000000       0.00000000       0.86827546
Ru       0.00000000       0.00000000       3.61616162       0.00000000       0.00000000      -0.86827546
2
Properties=species:S:1:pos:R:3:forces:R:3 energy=-6.038993717863391 pbc="F F F"
Ru       0.00000000       0.00000000       0.00000000       0.00000000       0.00000000       0.80824858
Ru       0.00000000       0.00000000       3.67575758       0.00000000       0.00000000      -0.80824858
2
Properties=species:S:1:pos:R:3:forces:R:3 energy=-5.9928037834485455 pbc="F F F"
Ru       0.00000000       0.00000000       0.00000000       0.00000000       0.00000000       0.74071807
Ru       0.00000000       0.00000000       3.73535354       0.00000000       0.00000000      -0.74071807
2
Properties=species:S:1:pos:R:3:forces:R:3 energy=-5.950829572867057 pbc="F F F"
Ru       0.00000000       0.00000000       0.00000000       0.00000000       0.00000000       0.66707706
Ru       0.00000000       0.00000000       3.79494949       0.00000000       0.00000000      -0.66707706
2
Properties=species:S:1:pos:R:3:forces:R:3 energy=-5.913350309633315 pbc="F F F"
Ru       0.00000000       0.00000000       0.00000000       0.00000000       0.00000000       0.59053928
Ru       0.00000000       0.00000000       3.85454545       0.00000000       0.00000000      -0.59053928
2
Properties=species:S:1:pos:R:3:forces:R:3 energy=-5.880421870410314 pbc="F F F"
Ru       0.00000000       0.00000000       0.00000000       0.00000000       0.00000000       0.51499760
Ru       0.00000000       0.00000000       3.91414141       0.00000000       0.00000000      -0.51499760
2
Properties=species:S:1:pos:R:3:forces:R:3 energy=-5.851877795704766 pbc="F F F"
Ru       0.00000000       0.00000000       0.00000000       0.00000000       0.00000000       0.44379026
Ru       0.00000000       0.00000000       3.97373737       0.00000000       0.00000000      -0.44379026
2
Properties=species:S:1:pos:R:3:forces:R:3 energy=-5.827395150415737 pbc="F F F"
Ru       0.00000000       0.00000000       0.00000000       0.00000000       0.00000000       0.37907523
Ru       0.00000000       0.00000000       4.03333333       0.00000000       0.00000000      -0.37907523
2
Properties=species:S:1:pos:R:3:forces:R:3 energy=-5.806546817530934 pbc="F F F"
Ru       0.00000000       0.00000000       0.00000000       0.00000000       0.00000000       0.32188833
Ru       0.00000000       0.00000000       4.09292929       0.00000000       0.00000000      -0.32188833
2
Properties=species:S:1:pos:R:3:forces:R:3 energy=-5.788873087056885 pbc="F F F"
Ru       0.00000000       0.00000000       0.00000000       0.00000000       0.00000000       0.27252582
Ru       0.00000000       0.00000000       4.15252525       0.00000000       0.00000000      -0.27252582
2
Properties=species:S:1:pos:R:3:forces:R:3 energy=-5.7739129815515575 pbc="F F F"
Ru       0.00000000       0.00000000       0.00000000       0.00000000       0.00000000       0.23084782
Ru       0.00000000       0.00000000       4.21212121       0.00000000       0.00000000      -0.23084782
2
Properties=species:S:1:pos:R:3:forces:R:3 energy=-5.761214670514111 pbc="F F F"
Ru       0.00000000       0.00000000       0.00000000       0.00000000       0.00000000       0.19641797
Ru       0.00000000       0.00000000       4.27171717       0.00000000       0.00000000      -0.19641797
2
Properties=species:S:1:pos:R:3:forces:R:3 energy=-5.750369656940464 pbc="F F F"
Ru       0.00000000       0.00000000       0.00000000       0.00000000       0.00000000       0.16854548
Ru       0.00000000       0.00000000       4.33131313       0.00000000       0.00000000      -0.16854548
2
Properties=species:S:1:pos:R:3:forces:R:3 energy=-5.741011696936097 pbc="F F F"
Ru       0.00000000       0.00000000       0.00000000       0.00000000       0.00000000       0.14633958
Ru       0.00000000       0.00000000       4.39090909       0.00000000       0.00000000      -0.14633958
2
Properties=species:S:1:pos:R:3:forces:R:3 energy=-5.732834824493396 pbc="F F F"
Ru       0.00000000       0.00000000       0.00000000       0.00000000       0.00000000       0.12881142
Ru       0.00000000       0.00000000       4.45050505       0.00000000       0.00000000      -0.12881142
2
Properties=species:S:1:pos:R:3:forces:R:3 energy=-5.725584534003967 pbc="F F F"
Ru       0.00000000       0.00000000       0.00000000       0.00000000       0.00000000       0.11499598
Ru       0.00000000       0.00000000       4.51010101       0.00000000       0.00000000      -0.11499598
2
Properties=species:S:1:pos:R:3:forces:R:3 energy=-5.719069078630616 pbc="F F F"
Ru       0.00000000       0.00000000       0.00000000       0.00000000       0.00000000       0.10405822
Ru       0.00000000       0.00000000       4.56969697       0.00000000       0.00000000      -0.10405822
2
Properties=species:S:1:pos:R:3:forces:R:3 energy=-5.713138441955052 pbc="F F F"
Ru       0.00000000       0.00000000       0.00000000       0.00000000       0.00000000       0.09535031
Ru       0.00000000       0.00000000       4.62929293       0.00000000       0.00000000      -0.09535031
2
Properties=species:S:1:pos:R:3:forces:R:3 energy=-5.707672687977653 pbc="F F F"
Ru       0.00000000       0.00000000       0.00000000       0.00000000       0.00000000       0.08840957
Ru       0.00000000       0.00000000       4.68888889       0.00000000       0.00000000      -0.08840957
2
Properties=species:S:1:pos:R:3:forces:R:3 energy=-5.702574277869958 pbc="F F F"
Ru       0.00000000       0.00000000       0.00000000       0.00000000       0.00000000       0.08291856
Ru       0.00000000       0.00000000       4.74848485       0.00000000       0.00000000      -0.08291856
2
Properties=species:S:1:pos:R:3:forces:R:3 energy=-5.697763127372869 pbc="F F F"
Ru       0.00000000       0.00000000       0.00000000       0.00000000       0.00000000       0.07865793
Ru       0.00000000       0.00000000       4.80808081       0.00000000       0.00000000      -0.07865793
2
Properties=species:S:1:pos:R:3:forces:R:3 energy=-5.693175713310948 pbc="F F F"
Ru       0.00000000       0.00000000       0.00000000       0.00000000       0.00000000       0.07546724
Ru       0.00000000       0.00000000       4.86767677       0.00000000       0.00000000      -0.07546724
2
Properties=species:S:1:pos:R:3:forces:R:3 energy=-5.688747828259178 pbc="F F F"
Ru       0.00000000       0.00000000       0.00000000       0.00000000       0.00000000       0.07321458
Ru       0.00000000       0.00000000       4.92727273       0.00000000       0.00000000      -0.07321458
2
Properties=species:S:1:pos:R:3:forces:R:3 energy=-5.684432627495057 pbc="F F F"
Ru       0.00000000       0.00000000       0.00000000       0.00000000       0.00000000       0.07177086
Ru       0.00000000       0.00000000       4.98686869       0.00000000       0.00000000      -0.07177086
2
Properties=species:S:1:pos:R:3:forces:R:3 energy=-5.680183562647305 pbc="F F F"
Ru       0.00000000       0.00000000       0.00000000       0.00000000       0.00000000       0.07097475
Ru       0.00000000       0.00000000       5.04646465       0.00000000       0.00000000      -0.07097475
2
Properties=species:S:1:pos:R:3:forces:R:3 energy=-5.6759638313239185 pbc="F F F"
Ru       0.00000000       0.00000000       0.00000000       0.00000000       0.00000000       0.07059307
Ru       0.00000000       0.00000000       5.10606061       0.00000000       0.00000000      -0.07059307
2
Properties=species:S:1:pos:R:3:forces:R:3 energy=-5.671763690553594 pbc="F F F"
Ru       0.00000000       0.00000000       0.00000000       0.00000000       0.00000000       0.07029139
Ru       0.00000000       0.00000000       5.16565657       0.00000000       0.00000000      -0.07029139
2
Properties=species:S:1:pos:R:3:forces:R:3 energy=-5.667595667823302 pbc="F F F"
Ru       0.00000000       0.00000000       0.00000000       0.00000000       0.00000000       0.06964377
Ru       0.00000000       0.00000000       5.22525253       0.00000000       0.00000000      -0.06964377
2
Properties=species:S:1:pos:R:3:forces:R:3 energy=-5.6634841181781415 pbc="F F F"
Ru       0.00000000       0.00000000       0.00000000       0.00000000       0.00000000       0.06818616
Ru       0.00000000       0.00000000       5.28484848       0.00000000       0.00000000      -0.06818616
2
Properties=species:S:1:pos:R:3:forces:R:3 energy=-5.659488223278706 pbc="F F F"
Ru       0.00000000       0.00000000       0.00000000       0.00000000       0.00000000       0.06550500
Ru       0.00000000       0.00000000       5.34444444       0.00000000       0.00000000      -0.06550500
2
Properties=species:S:1:pos:R:3:forces:R:3 energy=-5.655701994568908 pbc="F F F"
Ru       0.00000000       0.00000000       0.00000000       0.00000000       0.00000000       0.06133804
Ru       0.00000000       0.00000000       5.40404040       0.00000000       0.00000000      -0.06133804
2
Properties=species:S:1:pos:R:3:forces:R:3 energy=-5.652209558289056 pbc="F F F"
Ru       0.00000000       0.00000000       0.00000000       0.00000000       0.00000000       0.05566596
Ru       0.00000000       0.00000000       5.46363636       0.00000000       0.00000000      -0.05566596
2
Properties=species:S:1:pos:R:3:forces:R:3 energy=-5.649094714393782 pbc="F F F"
Ru       0.00000000       0.00000000       0.00000000       0.00000000       0.00000000       0.04873239
Ru       0.00000000       0.00000000       5.52323232       0.00000000       0.00000000      -0.04873239
2
Properties=species:S:1:pos:R:3:forces:R:3 energy=-5.646414325538017 pbc="F F F"
Ru       0.00000000       0.00000000       0.00000000       0.00000000       0.00000000       0.04103425
Ru       0.00000000       0.00000000       5.58282828       0.00000000       0.00000000      -0.04103425
2
Properties=species:S:1:pos:R:3:forces:R:3 energy=-5.6442059464715255 pbc="F F F"
Ru       0.00000000       0.00000000       0.00000000       0.00000000       0.00000000       0.03322876
Ru       0.00000000       0.00000000       5.64242424       0.00000000       0.00000000      -0.03322876
2
Properties=species:S:1:pos:R:3:forces:R:3 energy=-5.642444050055015 pbc="F F F"
Ru       0.00000000       0.00000000       0.00000000       0.00000000       0.00000000       0.02600010
Ru       0.00000000       0.00000000       5.70202020       0.00000000       0.00000000      -0.02600010
2
Properties=species:S:1:pos:R:3:forces:R:3 energy=-5.641083925581043 pbc="F F F"
Ru       0.00000000       0.00000000       0.00000000       0.00000000       0.00000000       0.01994476
Ru       0.00000000       0.00000000       5.76161616       0.00000000       0.00000000      -0.01994476
2
Properties=species:S:1:pos:R:3:forces:R:3 energy=-5.640034029346447 pbc="F F F"
Ru       0.00000000       0.00000000       0.00000000       0.00000000       0.00000000       0.01542860
Ru       0.00000000       0.00000000       5.82121212       0.00000000       0.00000000      -0.01542860
2
Properties=species:S:1:pos:R:3:forces:R:3 energy=-5.639210420116105 pbc="F F F"
Ru       0.00000000       0.00000000       0.00000000       0.00000000       0.00000000       0.01252572
Ru       0.00000000       0.00000000       5.88080808       0.00000000       0.00000000      -0.01252572
2
Properties=species:S:1:pos:R:3:forces:R:3 energy=-5.638514816694107 pbc="F F F"
Ru       0.00000000       0.00000000       0.00000000       0.00000000       0.00000000       0.01096797
Ru       0.00000000       0.00000000       5.94040404       0.00000000       0.00000000      -0.01096797
2
Properties=species:S:1:pos:R:3:forces:R:3 energy=-5.637888041699335 pbc="F F F"
Ru       0.00000000       0.00000000       0.00000000       0.00000000       0.00000000       0.01020642
Ru       0.00000000       0.00000000       6.00000000       0.00000000       0.00000000      -0.01020642
