2
Properties=species:S:1:pos:R:3:forces:R:3 energy=6709679.4644362675 pbc="F F F"
S        0.00000000       0.00000000       0.00000000       0.00000000       0.00000000 -32312244.00000000
S        0.00000000       0.00000000       0.10000000       0.00000000       0.00000000 32312244.00000000
2
Properties=species:S:1:pos:R:3:forces:R:3 energy=4611366.9644362675 pbc="F F F"
S        0.00000000       0.00000000       0.00000000       0.00000000       0.00000000 -35885472.00000000
S        0.00000000       0.00000000       0.15959596       0.00000000       0.00000000 35885472.00000000
2
Properties=species:S:1:pos:R:3:forces:R:3 energy=2654886.214436267 pbc="F F F"
S        0.00000000       0.00000000       0.00000000       0.00000000       0.00000000 -28463310.00000000
S        0.00000000       0.00000000       0.21919192       0.00000000       0.00000000 28463310.00000000
2
Properties=species:S:1:pos:R:3:forces:R:3 energy=1292110.5894362673 pbc="F F F"
S        0.00000000       0.00000000       0.00000000       0.00000000       0.00000000 -17281566.00000000
S        0.00000000       0.00000000       0.27878788       0.00000000       0.00000000 17281566.00000000
2
Properties=species:S:1:pos:R:3:forces:R:3 energy=546406.8394362736 pbc="F F F"
S        0.00000000       0.00000000       0.00000000       0.00000000       0.00000000 -8405153.00000000
S        0.00000000       0.00000000       0.33838384       0.00000000       0.00000000 8405153.00000000
2
Properties=species:S:1:pos:R:3:forces:R:3 energy=205721.23006128945 pbc="F F F"
S        0.00000000       0.00000000       0.00000000       0.00000000       0.00000000 -3556868.50000000
S        0.00000000       0.00000000       0.39797980       0.00000000       0.00000000 3556868.50000000
2
Properties=species:S:1:pos:R:3:forces:R:3 energy=70428.46443631794 pbc="F F F"
S        0.00000000       0.00000000       0.00000000       0.00000000       0.00000000 -1377383.00000000
S        0.00000000       0.00000000       0.45757576       0.00000000       0.00000000 1377383.00000000
2
Properties=species:S:1:pos:R:3:forces:R:3 energy=18303.187092624965 pbc="F F F"
S        0.00000000       0.00000000       0.00000000       0.00000000       0.00000000 -449547.12500000
S        0.00000000       0.00000000       0.51717172       0.00000000       0.00000000  449547.12500000
2
Properties=species:S:1:pos:R:3:forces:R:3 energy=3728.2405595232094 pbc="F F F"
S        0.00000000       0.00000000       0.00000000       0.00000000       0.00000000 -107756.36718750
S        0.00000000       0.00000000       0.57676768       0.00000000       0.00000000  107756.36718750
2
Properties=species:S:1:pos:R:3:forces:R:3 energy=607.4993487567716 pbc="F F F"
S        0.00000000       0.00000000       0.00000000       0.00000000       0.00000000  -18823.83203125
S        0.00000000       0.00000000       0.63636364       0.00000000       0.00000000   18823.83203125
2
Properties=species:S:1:pos:R:3:forces:R:3 energy=112.03120175137231 pbc="F F F"
S        0.00000000       0.00000000       0.00000000       0.00000000       0.00000000    -946.08776855
S        0.00000000       0.00000000       0.69595960       0.00000000       0.00000000     946.08776855
2
Properties=species:S:1:pos:R:3:forces:R:3 energy=78.9286554776303 pbc="F F F"
S        0.00000000       0.00000000       0.00000000       0.00000000       0.00000000    -304.08691406
S        0.00000000       0.00000000       0.75555556       0.00000000       0.00000000     304.08691406
2
Properties=species:S:1:pos:R:3:forces:R:3 energy=63.76087046032783 pbc="F F F"
S        0.00000000       0.00000000       0.00000000       0.00000000       0.00000000    -195.32208252
S        0.00000000       0.00000000       0.81515152       0.00000000       0.00000000     195.32208252
2
Properties=species:S:1:pos:R:3:forces:R:3 energy=51.923877195182385 pbc="F F F"
S        0.00000000       0.00000000       0.00000000       0.00000000       0.00000000    -192.05049133
S        0.00000000       0.00000000       0.87474747       0.00000000       0.00000000     192.05049133
2
Properties=species:S:1:pos:R:3:forces:R:3 energy=41.61337356165246 pbc="F F F"
S        0.00000000       0.00000000       0.00000000       0.00000000       0.00000000    -156.80053711
S        0.00000000       0.00000000       0.93434343       0.00000000       0.00000000     156.80053711
2
Properties=species:S:1:pos:R:3:forces:R:3 energy=33.50880303949028 pbc="F F F"
S        0.00000000       0.00000000       0.00000000       0.00000000       0.00000000    -109.32700348
S        0.00000000       0.00000000       0.99393939       0.00000000       0.00000000     109.32700348
2
Properties=species:S:1:pos:R:3:forces:R:3 energy=29.06012456301392 pbc="F F F"
S        0.00000000       0.00000000       0.00000000       0.00000000       0.00000000     -13.12149048
S        0.00000000       0.00000000       1.05353535       0.00000000       0.00000000      13.12149048
2
Properties=species:S:1:pos:R:3:forces:R:3 energy=28.803360502236362 pbc="F F F"
S        0.00000000       0.00000000       0.00000000       0.00000000       0.00000000     -27.73592758
S        0.00000000       0.00000000       1.11313131       0.00000000       0.00000000      27.73592758
2
Properties=species:S:1:pos:R:3:forces:R:3 energy=25.39675614973596 pbc="F F F"
S        0.00000000       0.00000000       0.00000000       0.00000000       0.00000000     -86.25926208
S        0.00000000       0.00000000       1.17272727       0.00000000       0.00000000      86.25926208
2
Properties=species:S:1:pos:R:3:forces:R:3 energy=19.183159576699527 pbc="F F F"
S        0.00000000       0.00000000       0.00000000       0.00000000       0.00000000    -118.12753296
S        0.00000000       0.00000000       1.23232323       0.00000000       0.00000000     118.12753296
2
Properties=species:S:1:pos:R:3:forces:R:3 energy=12.042513011706491 pbc="F F F"
S        0.00000000       0.00000000       0.00000000       0.00000000       0.00000000    -116.48558807
S        0.00000000       0.00000000       1.29191919       0.00000000       0.00000000     116.48558807
2
Properties=species:S:1:pos:R:3:forces:R:3 energy=6.103619096381159 pbc="F F F"
S        0.00000000       0.00000000       0.00000000       0.00000000       0.00000000     -82.96224213
S        0.00000000       0.00000000       1.35151515       0.00000000       0.00000000      82.96224213
2
Properties=species:S:1:pos:R:3:forces:R:3 energy=1.9390995817247847 pbc="F F F"
S        0.00000000       0.00000000       0.00000000       0.00000000       0.00000000     -57.41745758
S        0.00000000       0.00000000       1.41111111       0.00000000       0.00000000      57.41745758
2
Properties=species:S:1:pos:R:3:forces:R:3 energy=-0.9036083714273463 pbc="F F F"
S        0.00000000       0.00000000       0.00000000       0.00000000       0.00000000     -39.65851974
S        0.00000000       0.00000000       1.47070707       0.00000000       0.00000000      39.65851974
2
Properties=species:S:1:pos:R:3:forces:R:3 energy=-2.9128207699986417 pbc="F F F"
S        0.00000000       0.00000000       0.00000000       0.00000000       0.00000000     -28.28920746
S        0.00000000       0.00000000       1.53030303       0.00000000       0.00000000      28.28920746
2
Properties=species:S:1:pos:R:3:forces:R:3 energy=-4.32429293251305 pbc="F F F"
S        0.00000000       0.00000000       0.00000000       0.00000000       0.00000000     -19.45794296
S        0.00000000       0.00000000       1.58989899       0.00000000       0.00000000      19.45794296
2
Properties=species:S:1:pos:R:3:forces:R:3 energy=-5.290924377845499 pbc="F F F"
S        0.00000000       0.00000000       0.00000000       0.00000000       0.00000000     -13.45366001
S        0.00000000       0.00000000       1.64949495       0.00000000       0.00000000      13.45366001
2
Properties=species:S:1:pos:R:3:forces:R:3 energy=-5.956695341477219 pbc="F F F"
S        0.00000000       0.00000000       0.00000000       0.00000000       0.00000000      -9.05562496
S        0.00000000       0.00000000       1.70909091       0.00000000       0.00000000       9.05562496
2
Properties=species:S:1:pos:R:3:forces:R:3 energy=-6.404459709532801 pbc="F F F"
S        0.00000000       0.00000000       0.00000000       0.00000000       0.00000000      -6.21074247
S        0.00000000       0.00000000       1.76868687       0.00000000       0.00000000       6.21074247
2
Properties=species:S:1:pos:R:3:forces:R:3 energy=-6.691009248712135 pbc="F F F"
S        0.00000000       0.00000000       0.00000000       0.00000000       0.00000000      -3.26064682
S        0.00000000       0.00000000       1.82828283       0.00000000       0.00000000       3.26064682
2
Properties=species:S:1:pos:R:3:forces:R:3 energy=-6.795707308775513 pbc="F F F"
S        0.00000000       0.00000000       0.00000000       0.00000000       0.00000000      -0.39175716
S        0.00000000       0.00000000       1.88787879       0.00000000       0.00000000       0.39175716
2
Properties=species:S:1:pos:R:3:forces:R:3 energy=-6.765213681101152 pbc="F F F"
S        0.00000000       0.00000000       0.00000000       0.00000000       0.00000000       1.16820860
S        0.00000000       0.00000000       1.94747475       0.00000000       0.00000000      -1.16820860
2
Properties=species:S:1:pos:R:3:forces:R:3 energy=-6.678288231007455 pbc="F F F"
S        0.00000000       0.00000000       0.00000000       0.00000000       0.00000000       1.65040064
S        0.00000000       0.00000000       2.00707071       0.00000000       0.00000000      -1.65040064
2
Properties=species:S:1:pos:R:3:forces:R:3 energy=-6.573805271199549 pbc="F F F"
S        0.00000000       0.00000000       0.00000000       0.00000000       0.00000000       1.85929644
S        0.00000000       0.00000000       2.06666667       0.00000000       0.00000000      -1.85929644
2
Properties=species:S:1:pos:R:3:forces:R:3 energy=-6.447440481354972 pbc="F F F"
S        0.00000000       0.00000000       0.00000000       0.00000000       0.00000000       2.51365781
S        0.00000000       0.00000000       2.12626263       0.00000000       0.00000000      -2.51365781
2
Properties=species:S:1:pos:R:3:forces:R:3 energy=-6.262826046106148 pbc="F F F"
S        0.00000000       0.00000000       0.00000000       0.00000000       0.00000000       3.69162512
S        0.00000000       0.00000000       2.18585859       0.00000000       0.00000000      -3.69162512
2
Properties=species:S:1:pos:R:3:forces:R:3 energy=-6.013352606622462 pbc="F F F"
S        0.00000000       0.00000000       0.00000000       0.00000000       0.00000000       4.61029863
S        0.00000000       0.00000000       2.24545455       0.00000000       0.00000000      -4.61029863
2
Properties=species:S:1:pos:R:3:forces:R:3 energy=-5.721653809145713 pbc="F F F"
S        0.00000000       0.00000000       0.00000000       0.00000000       0.00000000       5.11005640
S        0.00000000       0.00000000       2.30505051       0.00000000       0.00000000      -5.11005640
2
Properties=species:S:1:pos:R:3:forces:R:3 energy=-5.411961387143276 pbc="F F F"
S        0.00000000       0.00000000       0.00000000       0.00000000       0.00000000       5.23416805
S        0.00000000       0.00000000       2.36464646       0.00000000       0.00000000      -5.23416805
2
Properties=species:S:1:pos:R:3:forces:R:3 energy=-5.100452008024985 pbc="F F F"
S        0.00000000       0.00000000       0.00000000       0.00000000       0.00000000       5.21470833
S        0.00000000       0.00000000       2.42424242       0.00000000       0.00000000      -5.21470833
2
Properties=species:S:1:pos:R:3:forces:R:3 energy=-4.7912807054186715 pbc="F F F"
S        0.00000000       0.00000000       0.00000000       0.00000000       0.00000000       5.14410973
S        0.00000000       0.00000000       2.48383838       0.00000000       0.00000000      -5.14410973
2
Properties=species:S:1:pos:R:3:forces:R:3 energy=-4.490534567778789 pbc="F F F"
S        0.00000000       0.00000000       0.00000000       0.00000000       0.00000000       4.91550064
S        0.00000000       0.00000000       2.54343434       0.00000000       0.00000000      -4.91550064
2
Properties=species:S:1:pos:R:3:forces:R:3 energy=-4.209216840679405 pbc="F F F"
S        0.00000000       0.00000000       0.00000000       0.00000000       0.00000000       4.49873781
S        0.00000000       0.00000000       2.60303030       0.00000000       0.00000000      -4.49873781
2
Properties=species:S:1:pos:R:3:forces:R:3 energy=-3.956403796694094 pbc="F F F"
S        0.00000000       0.00000000       0.00000000       0.00000000       0.00000000       3.97762942
S        0.00000000       0.00000000       2.66262626       0.00000000       0.00000000      -3.97762942
2
Properties=species:S:1:pos:R:3:forces:R:3 energy=-3.7350537611328245 pbc="F F F"
S        0.00000000       0.00000000       0.00000000       0.00000000       0.00000000       3.45787406
S        0.00000000       0.00000000       2.72222222       0.00000000       0.00000000      -3.45787406
2
Properties=species:S:1:pos:R:3:forces:R:3 energy=-3.5429723401396487 pbc="F F F"
S        0.00000000       0.00000000       0.00000000       0.00000000       0.00000000       3.00067949
S        0.00000000       0.00000000       2.78181818       0.00000000       0.00000000      -3.00067949
2
Properties=species:S:1:pos:R:3:forces:R:3 energy=-3.375974812282 pbc="F F F"
S        0.00000000       0.00000000       0.00000000       0.00000000       0.00000000       2.61424232
S        0.00000000       0.00000000       2.84141414       0.00000000       0.00000000      -2.61424232
2
Properties=species:S:1:pos:R:3:forces:R:3 energy=-3.2303082050112955 pbc="F F F"
S        0.00000000       0.00000000       0.00000000       0.00000000       0.00000000       2.28175235
S        0.00000000       0.00000000       2.90101010       0.00000000       0.00000000      -2.28175235
2
Properties=species:S:1:pos:R:3:forces:R:3 energy=-3.103203174890914 pbc="F F F"
S        0.00000000       0.00000000       0.00000000       0.00000000       0.00000000       1.99025857
S        0.00000000       0.00000000       2.96060606       0.00000000       0.00000000      -1.99025857
2
Properties=species:S:1:pos:R:3:forces:R:3 energy=-2.9923172000898175 pbc="F F F"
S        0.00000000       0.00000000       0.00000000       0.00000000       0.00000000       1.73730803
S        0.00000000       0.00000000       3.02020202       0.00000000       0.00000000      -1.73730803
2
Properties=species:S:1:pos:R:3:forces:R:3 energy=-2.8954542703051636 pbc="F F F"
S        0.00000000       0.00000000       0.00000000       0.00000000       0.00000000       1.51798701
S        0.00000000       0.00000000       3.07979798       0.00000000       0.00000000      -1.51798701
2
Properties=species:S:1:pos:R:3:forces:R:3 energy=-2.810954090261679 pbc="F F F"
S        0.00000000       0.00000000       0.00000000       0.00000000       0.00000000       1.32076991
S        0.00000000       0.00000000       3.13939394       0.00000000       0.00000000      -1.32076991
2
Properties=species:S:1:pos:R:3:forces:R:3 energy=-2.7376512996394022 pbc="F F F"
S        0.00000000       0.00000000       0.00000000       0.00000000       0.00000000       1.14285851
S        0.00000000       0.00000000       3.19898990       0.00000000       0.00000000      -1.14285851
2
Properties=species:S:1:pos:R:3:forces:R:3 energy=-2.6742706723348317 pbc="F F F"
S        0.00000000       0.00000000       0.00000000       0.00000000       0.00000000       0.98804963
S        0.00000000       0.00000000       3.25858586       0.00000000       0.00000000      -0.98804963
2
Properties=species:S:1:pos:R:3:forces:R:3 energy=-2.6194561701855226 pbc="F F F"
S        0.00000000       0.00000000       0.00000000       0.00000000       0.00000000       0.85456896
S        0.00000000       0.00000000       3.31818182       0.00000000       0.00000000      -0.85456896
2
Properties=species:S:1:pos:R:3:forces:R:3 energy=-2.5721125896263755 pbc="F F F"
S        0.00000000       0.00000000       0.00000000       0.00000000       0.00000000       0.73631018
S        0.00000000       0.00000000       3.37777778       0.00000000       0.00000000      -0.73631018
2
Properties=species:S:1:pos:R:3:forces:R:3 energy=-2.531484789517806 pbc="F F F"
S        0.00000000       0.00000000       0.00000000       0.00000000       0.00000000       0.62881285
S        0.00000000       0.00000000       3.43737374       0.00000000       0.00000000      -0.62881285
2
Properties=species:S:1:pos:R:3:forces:R:3 energy=-2.496963128913912 pbc="F F F"
S        0.00000000       0.00000000       0.00000000       0.00000000       0.00000000       0.53143054
S        0.00000000       0.00000000       3.49696970       0.00000000       0.00000000      -0.53143054
2
Properties=species:S:1:pos:R:3:forces:R:3 energy=-2.4679118611224076 pbc="F F F"
S        0.00000000       0.00000000       0.00000000       0.00000000       0.00000000       0.44557375
S        0.00000000       0.00000000       3.55656566       0.00000000       0.00000000      -0.44557375
2
Properties=species:S:1:pos:R:3:forces:R:3 energy=-2.443609877600206 pbc="F F F"
S        0.00000000       0.00000000       0.00000000       0.00000000       0.00000000       0.37188354
S        0.00000000       0.00000000       3.61616162       0.00000000       0.00000000      -0.37188354
2
Properties=species:S:1:pos:R:3:forces:R:3 energy=-2.423366459005626 pbc="F F F"
S        0.00000000       0.00000000       0.00000000       0.00000000       0.00000000       0.30926830
S        0.00000000       0.00000000       3.67575758       0.00000000       0.00000000      -0.30926830
2
Properties=species:S:1:pos:R:3:forces:R:3 energy=-2.4065678801109165 pbc="F F F"
S        0.00000000       0.00000000       0.00000000       0.00000000       0.00000000       0.25580150
S        0.00000000       0.00000000       3.73535354       0.00000000       0.00000000      -0.25580150
2
Properties=species:S:1:pos:R:3:forces:R:3 energy=-2.3927283505987225 pbc="F F F"
S        0.00000000       0.00000000       0.00000000       0.00000000       0.00000000       0.20978019
S        0.00000000       0.00000000       3.79494949       0.00000000       0.00000000      -0.20978019
2
Properties=species:S:1:pos:R:3:forces:R:3 energy=-2.3814392549114083 pbc="F F F"
S        0.00000000       0.00000000       0.00000000       0.00000000       0.00000000       0.17006305
S        0.00000000       0.00000000       3.85454545       0.00000000       0.00000000      -0.17006305
2
Properties=species:S:1:pos:R:3:forces:R:3 energy=-2.3723485500507686 pbc="F F F"
S        0.00000000       0.00000000       0.00000000       0.00000000       0.00000000       0.13586742
S        0.00000000       0.00000000       3.91414141       0.00000000       0.00000000      -0.13586742
2
Properties=species:S:1:pos:R:3:forces:R:3 energy=-2.3651482110047186 pbc="F F F"
S        0.00000000       0.00000000       0.00000000       0.00000000       0.00000000       0.10648684
S        0.00000000       0.00000000       3.97373737       0.00000000       0.00000000      -0.10648684
2
Properties=species:S:1:pos:R:3:forces:R:3 energy=-2.359576049396906 pbc="F F F"
S        0.00000000       0.00000000       0.00000000       0.00000000       0.00000000       0.08119279
S        0.00000000       0.00000000       4.03333333       0.00000000       0.00000000      -0.08119279
2
Properties=species:S:1:pos:R:3:forces:R:3 energy=-2.355403223853757 pbc="F F F"
S        0.00000000       0.00000000       0.00000000       0.00000000       0.00000000       0.05932054
S        0.00000000       0.00000000       4.09292929       0.00000000       0.00000000      -0.05932054
2
Properties=species:S:1:pos:R:3:forces:R:3 energy=-2.3524465791658793 pbc="F F F"
S        0.00000000       0.00000000       0.00000000       0.00000000       0.00000000       0.04040673
S        0.00000000       0.00000000       4.15252525       0.00000000       0.00000000      -0.04040673
2
Properties=species:S:1:pos:R:3:forces:R:3 energy=-2.3505333302440437 pbc="F F F"
S        0.00000000       0.00000000       0.00000000       0.00000000       0.00000000       0.02423780
S        0.00000000       0.00000000       4.21212121       0.00000000       0.00000000      -0.02423780
2
Properties=species:S:1:pos:R:3:forces:R:3 energy=-2.3495024672880818 pbc="F F F"
S        0.00000000       0.00000000       0.00000000       0.00000000       0.00000000       0.01076617
S        0.00000000       0.00000000       4.27171717       0.00000000       0.00000000      -0.01076617
2
Properties=species:S:1:pos:R:3:forces:R:3 energy=-2.3491957338947476 pbc="F F F"
S        0.00000000       0.00000000       0.00000000       0.00000000       0.00000000      -0.00004973
S        0.00000000       0.00000000       4.33131313       0.00000000       0.00000000       0.00004973
2
Properties=species:S:1:pos:R:3:forces:R:3 energy=-2.349460492832398 pbc="F F F"
S        0.00000000       0.00000000       0.00000000       0.00000000       0.00000000      -0.00837548
S        0.00000000       0.00000000       4.39090909       0.00000000       0.00000000       0.00837548
2
Properties=species:S:1:pos:R:3:forces:R:3 energy=-2.350151703081713 pbc="F F F"
S        0.00000000       0.00000000       0.00000000       0.00000000       0.00000000      -0.01451709
S        0.00000000       0.00000000       4.45050505       0.00000000       0.00000000       0.01451709
2
Properties=species:S:1:pos:R:3:forces:R:3 energy=-2.351153413145816 pbc="F F F"
S        0.00000000       0.00000000       0.00000000       0.00000000       0.00000000      -0.01884516
S        0.00000000       0.00000000       4.51010101       0.00000000       0.00000000       0.01884516
2
Properties=species:S:1:pos:R:3:forces:R:3 energy=-2.3523678357692748 pbc="F F F"
S        0.00000000       0.00000000       0.00000000       0.00000000       0.00000000      -0.02168918
S        0.00000000       0.00000000       4.56969697       0.00000000       0.00000000       0.02168918
2
Properties=species:S:1:pos:R:3:forces:R:3 energy=-2.353715932481218 pbc="F F F"
S        0.00000000       0.00000000       0.00000000       0.00000000       0.00000000      -0.02326558
S        0.00000000       0.00000000       4.62929293       0.00000000       0.00000000       0.02326558
2
Properties=species:S:1:pos:R:3:forces:R:3 energy=-2.3551178735672655 pbc="F F F"
S        0.00000000       0.00000000       0.00000000       0.00000000       0.00000000      -0.02366785
S        0.00000000       0.00000000       4.68888889       0.00000000       0.00000000       0.02366785
2
Properties=species:S:1:pos:R:3:forces:R:3 energy=-2.356512673924216 pbc="F F F"
S        0.00000000       0.00000000       0.00000000       0.00000000       0.00000000      -0.02290340
S        0.00000000       0.00000000       4.74848485       0.00000000       0.00000000       0.02290340
2
Properties=species:S:1:pos:R:3:forces:R:3 energy=-2.357824362172436 pbc="F F F"
S        0.00000000       0.00000000       0.00000000       0.00000000       0.00000000      -0.02095066
S        0.00000000       0.00000000       4.80808081       0.00000000       0.00000000       0.02095066
2
Properties=species:S:1:pos:R:3:forces:R:3 energy=-2.358985431999763 pbc="F F F"
S        0.00000000       0.00000000       0.00000000       0.00000000       0.00000000      -0.01781196
S        0.00000000       0.00000000       4.86767677       0.00000000       0.00000000       0.01781196
2
Properties=species:S:1:pos:R:3:forces:R:3 energy=-2.3599254032174235 pbc="F F F"
S        0.00000000       0.00000000       0.00000000       0.00000000       0.00000000      -0.01355646
S        0.00000000       0.00000000       4.92727273       0.00000000       0.00000000       0.01355646
2
Properties=species:S:1:pos:R:3:forces:R:3 energy=-2.360580410772258 pbc="F F F"
S        0.00000000       0.00000000       0.00000000       0.00000000       0.00000000      -0.00834459
S        0.00000000       0.00000000       4.98686869       0.00000000       0.00000000       0.00834459
2
Properties=species:S:1:pos:R:3:forces:R:3 energy=-2.36090706193069 pbc="F F F"
S        0.00000000       0.00000000       0.00000000       0.00000000       0.00000000      -0.00244374
S        0.00000000       0.00000000       5.04646465       0.00000000       0.00000000       0.00244374
2
Properties=species:S:1:pos:R:3:forces:R:3 energy=-2.3608676614544186 pbc="F F F"
S        0.00000000       0.00000000       0.00000000       0.00000000       0.00000000       0.00377505
S        0.00000000       0.00000000       5.10606061       0.00000000       0.00000000      -0.00377505
2
Properties=species:S:1:pos:R:3:forces:R:3 energy=-2.360458870931156 pbc="F F F"
S        0.00000000       0.00000000       0.00000000       0.00000000       0.00000000       0.00985243
S        0.00000000       0.00000000       5.16565657       0.00000000       0.00000000      -0.00985243
2
Properties=species:S:1:pos:R:3:forces:R:3 energy=-2.359705508703636 pbc="F F F"
S        0.00000000       0.00000000       0.00000000       0.00000000       0.00000000       0.01528406
S        0.00000000       0.00000000       5.22525253       0.00000000       0.00000000      -0.01528406
2
Properties=species:S:1:pos:R:3:forces:R:3 energy=-2.3586596053027873 pbc="F F F"
S        0.00000000       0.00000000       0.00000000       0.00000000       0.00000000       0.01958845
S        0.00000000       0.00000000       5.28484848       0.00000000       0.00000000      -0.01958845
2
Properties=species:S:1:pos:R:3:forces:R:3 energy=-2.357401849798319 pbc="F F F"
S        0.00000000       0.00000000       0.00000000       0.00000000       0.00000000       0.02238067
S        0.00000000       0.00000000       5.34444444       0.00000000       0.00000000      -0.02238067
2
Properties=species:S:1:pos:R:3:forces:R:3 energy=-2.356026340513124 pbc="F F F"
S        0.00000000       0.00000000       0.00000000       0.00000000       0.00000000       0.02344554
S        0.00000000       0.00000000       5.40404040       0.00000000       0.00000000      -0.02344554
2
Properties=species:S:1:pos:R:3:forces:R:3 energy=-2.3546405810635003 pbc="F F F"
S        0.00000000       0.00000000       0.00000000       0.00000000       0.00000000       0.02279042
S        0.00000000       0.00000000       5.46363636       0.00000000       0.00000000      -0.02279042
2
Properties=species:S:1:pos:R:3:forces:R:3 energy=-2.35334069314246 pbc="F F F"
S        0.00000000       0.00000000       0.00000000       0.00000000       0.00000000       0.02064971
S        0.00000000       0.00000000       5.52323232       0.00000000       0.00000000      -0.02064971
2
Properties=species:S:1:pos:R:3:forces:R:3 energy=-2.3522018821524298 pbc="F F F"
S        0.00000000       0.00000000       0.00000000       0.00000000       0.00000000       0.01744865
S        0.00000000       0.00000000       5.58282828       0.00000000       0.00000000      -0.01744865
2
Properties=species:S:1:pos:R:3:forces:R:3 energy=-2.351272705853876 pbc="F F F"
S        0.00000000       0.00000000       0.00000000       0.00000000       0.00000000       0.01372838
S        0.00000000       0.00000000       5.64242424       0.00000000       0.00000000      -0.01372838
2
Properties=species:S:1:pos:R:3:forces:R:3 energy=-2.3505622138192437 pbc="F F F"
S        0.00000000       0.00000000       0.00000000       0.00000000       0.00000000       0.01004148
S        0.00000000       0.00000000       5.70202020       0.00000000       0.00000000      -0.01004148
2
Properties=species:S:1:pos:R:3:forces:R:3 energy=-2.350062821163361 pbc="F F F"
S        0.00000000       0.00000000       0.00000000       0.00000000       0.00000000       0.00686119
S        0.00000000       0.00000000       5.76161616       0.00000000       0.00000000      -0.00686119
2
Properties=species:S:1:pos:R:3:forces:R:3 energy=-2.3497317148641046 pbc="F F F"
S        0.00000000       0.00000000       0.00000000       0.00000000       0.00000000       0.00449159
S        0.00000000       0.00000000       5.82121212       0.00000000       0.00000000      -0.00449159
2
Properties=species:S:1:pos:R:3:forces:R:3 energy=-2.349510406065772 pbc="F F F"
S        0.00000000       0.00000000       0.00000000       0.00000000       0.00000000       0.00302846
S        0.00000000       0.00000000       5.88080808       0.00000000       0.00000000      -0.00302846
2
Properties=species:S:1:pos:R:3:forces:R:3 energy=-2.3493533280332652 pbc="F F F"
S        0.00000000       0.00000000       0.00000000       0.00000000       0.00000000       0.00234046
S        0.00000000       0.00000000       5.94040404       0.00000000       0.00000000      -0.00234046
2
Properties=species:S:1:pos:R:3:forces:R:3 energy=-2.3492221214317803 pbc="F F F"
S        0.00000000       0.00000000       0.00000000       0.00000000       0.00000000       0.00211222
S        0.00000000       0.00000000       6.00000000       0.00000000       0.00000000      -0.00211222
