2
Properties=species:S:1:pos:R:3:forces:R:3 energy=-9570364.054237925 pbc="F F F"
Sb       0.00000000       0.00000000       0.00000000       0.00000000       0.00000000 43422116.00000000
Sb       0.00000000       0.00000000       0.10000000       0.00000000       0.00000000 -43422116.00000000
2
Properties=species:S:1:pos:R:3:forces:R:3 energy=-6757048.554237924 pbc="F F F"
Sb       0.00000000       0.00000000       0.00000000       0.00000000       0.00000000 48192764.00000000
Sb       0.00000000       0.00000000       0.15959596       0.00000000       0.00000000 -48192764.00000000
2
Properties=species:S:1:pos:R:3:forces:R:3 energy=-4097364.054237924 pbc="F F F"
Sb       0.00000000       0.00000000       0.00000000       0.00000000       0.00000000 39456944.00000000
Sb       0.00000000       0.00000000       0.21919192       0.00000000       0.00000000 -39456944.00000000
2
Properties=species:S:1:pos:R:3:forces:R:3 energy=-2140571.554237924 pbc="F F F"
Sb       0.00000000       0.00000000       0.00000000       0.00000000       0.00000000 27578676.00000000
Sb       0.00000000       0.00000000       0.27878788       0.00000000       0.00000000 -27578676.00000000
2
Properties=species:S:1:pos:R:3:forces:R:3 energy=-965826.8042379176 pbc="F F F"
Sb       0.00000000       0.00000000       0.00000000       0.00000000       0.00000000 13369655.00000000
Sb       0.00000000       0.00000000       0.33838384       0.00000000       0.00000000 -13369655.00000000
2
Properties=species:S:1:pos:R:3:forces:R:3 energy=-369784.1792379176 pbc="F F F"
Sb       0.00000000       0.00000000       0.00000000       0.00000000       0.00000000 6761368.00000000
Sb       0.00000000       0.00000000       0.39797980       0.00000000       0.00000000 -6761368.00000000
2
Properties=species:S:1:pos:R:3:forces:R:3 energy=-111258.86673790491 pbc="F F F"
Sb       0.00000000       0.00000000       0.00000000       0.00000000       0.00000000 2838426.25000000
Sb       0.00000000       0.00000000       0.45757576       0.00000000       0.00000000 -2838426.25000000
2
Properties=species:S:1:pos:R:3:forces:R:3 energy=13.107907735046568 pbc="F F F"
Sb       0.00000000       0.00000000       0.00000000       0.00000000       0.00000000  899421.68750000
Sb       0.00000000       0.00000000       0.51717172       0.00000000       0.00000000 -899421.68750000
2
Properties=species:S:1:pos:R:3:forces:R:3 energy=28652.22896528977 pbc="F F F"
Sb       0.00000000       0.00000000       0.00000000       0.00000000       0.00000000  -12602.15625000
Sb       0.00000000       0.00000000       0.57676768       0.00000000       0.00000000   12602.15625000
2
Properties=species:S:1:pos:R:3:forces:R:3 energy=21814.5336528658 pbc="F F F"
Sb       0.00000000       0.00000000       0.00000000       0.00000000       0.00000000 -162409.03125000
Sb       0.00000000       0.00000000       0.63636364       0.00000000       0.00000000  162409.03125000
2
Properties=species:S:1:pos:R:3:forces:R:3 energy=14097.340293611178 pbc="F F F"
Sb       0.00000000       0.00000000       0.00000000       0.00000000       0.00000000  -99584.71093750
Sb       0.00000000       0.00000000       0.69595960       0.00000000       0.00000000   99584.71093750
2
Properties=species:S:1:pos:R:3:forces:R:3 energy=8239.186973476075 pbc="F F F"
Sb       0.00000000       0.00000000       0.00000000       0.00000000       0.00000000  -82216.57812500
Sb       0.00000000       0.00000000       0.75555556       0.00000000       0.00000000   82216.57812500
2
Properties=species:S:1:pos:R:3:forces:R:3 energy=4311.769493279758 pbc="F F F"
Sb       0.00000000       0.00000000       0.00000000       0.00000000       0.00000000  -46120.65625000
Sb       0.00000000       0.00000000       0.81515152       0.00000000       0.00000000   46120.65625000
2
Properties=species:S:1:pos:R:3:forces:R:3 energy=1993.2066274616302 pbc="F F F"
Sb       0.00000000       0.00000000       0.00000000       0.00000000       0.00000000  -28254.63867188
Sb       0.00000000       0.00000000       0.87474747       0.00000000       0.00000000   28254.63867188
2
Properties=species:S:1:pos:R:3:forces:R:3 energy=846.7979976480732 pbc="F F F"
Sb       0.00000000       0.00000000       0.00000000       0.00000000       0.00000000  -12806.62597656
Sb       0.00000000       0.00000000       0.93434343       0.00000000       0.00000000   12806.62597656
2
Properties=species:S:1:pos:R:3:forces:R:3 energy=350.91756628577986 pbc="F F F"
Sb       0.00000000       0.00000000       0.00000000       0.00000000       0.00000000   -4622.21923828
Sb       0.00000000       0.00000000       0.99393939       0.00000000       0.00000000    4622.21923828
2
Properties=species:S:1:pos:R:3:forces:R:3 energy=183.13085468467682 pbc="F F F"
Sb       0.00000000       0.00000000       0.00000000       0.00000000       0.00000000   -1400.97985840
Sb       0.00000000       0.00000000       1.05353535       0.00000000       0.00000000    1400.97985840
2
Properties=species:S:1:pos:R:3:forces:R:3 energy=133.62583593691699 pbc="F F F"
Sb       0.00000000       0.00000000       0.00000000       0.00000000       0.00000000    -574.38311768
Sb       0.00000000       0.00000000       1.11313131       0.00000000       0.00000000     574.38311768
2
Properties=species:S:1:pos:R:3:forces:R:3 energy=102.96235510823821 pbc="F F F"
Sb       0.00000000       0.00000000       0.00000000       0.00000000       0.00000000    -445.74588013
Sb       0.00000000       0.00000000       1.17272727       0.00000000       0.00000000     445.74588013
2
Properties=species:S:1:pos:R:3:forces:R:3 energy=82.3096704240222 pbc="F F F"
Sb       0.00000000       0.00000000       0.00000000       0.00000000       0.00000000    -288.08157349
Sb       0.00000000       0.00000000       1.23232323       0.00000000       0.00000000     288.08157349
2
Properties=species:S:1:pos:R:3:forces:R:3 energy=62.02921313914368 pbc="F F F"
Sb       0.00000000       0.00000000       0.00000000       0.00000000       0.00000000    -366.29187012
Sb       0.00000000       0.00000000       1.29191919       0.00000000       0.00000000     366.29187012
2
Properties=species:S:1:pos:R:3:forces:R:3 energy=45.65364864567234 pbc="F F F"
Sb       0.00000000       0.00000000       0.00000000       0.00000000       0.00000000    -197.11856079
Sb       0.00000000       0.00000000       1.35151515       0.00000000       0.00000000     197.11856079
2
Properties=species:S:1:pos:R:3:forces:R:3 energy=35.86723081996884 pbc="F F F"
Sb       0.00000000       0.00000000       0.00000000       0.00000000       0.00000000    -141.59020996
Sb       0.00000000       0.00000000       1.41111111       0.00000000       0.00000000     141.59020996
2
Properties=species:S:1:pos:R:3:forces:R:3 energy=29.103641352810897 pbc="F F F"
Sb       0.00000000       0.00000000       0.00000000       0.00000000       0.00000000     -93.58228302
Sb       0.00000000       0.00000000       1.47070707       0.00000000       0.00000000      93.58228302
2
Properties=species:S:1:pos:R:3:forces:R:3 energy=24.272748718973798 pbc="F F F"
Sb       0.00000000       0.00000000       0.00000000       0.00000000       0.00000000     -72.74600220
Sb       0.00000000       0.00000000       1.53030303       0.00000000       0.00000000      72.74600220
2
Properties=species:S:1:pos:R:3:forces:R:3 energy=20.062932472274333 pbc="F F F"
Sb       0.00000000       0.00000000       0.00000000       0.00000000       0.00000000     -67.90480804
Sb       0.00000000       0.00000000       1.58989899       0.00000000       0.00000000      67.90480804
2
Properties=species:S:1:pos:R:3:forces:R:3 energy=16.172932934987877 pbc="F F F"
Sb       0.00000000       0.00000000       0.00000000       0.00000000       0.00000000     -62.30568314
Sb       0.00000000       0.00000000       1.64949495       0.00000000       0.00000000      62.30568314
2
Properties=species:S:1:pos:R:3:forces:R:3 energy=12.56843152528903 pbc="F F F"
Sb       0.00000000       0.00000000       0.00000000       0.00000000       0.00000000     -58.91577148
Sb       0.00000000       0.00000000       1.70909091       0.00000000       0.00000000      58.91577148
2
Properties=species:S:1:pos:R:3:forces:R:3 energy=9.236790550282365 pbc="F F F"
Sb       0.00000000       0.00000000       0.00000000       0.00000000       0.00000000     -52.70810699
Sb       0.00000000       0.00000000       1.76868687       0.00000000       0.00000000      52.70810699
2
Properties=species:S:1:pos:R:3:forces:R:3 energy=6.243315686464691 pbc="F F F"
Sb       0.00000000       0.00000000       0.00000000       0.00000000       0.00000000     -47.35464096
Sb       0.00000000       0.00000000       1.82828283       0.00000000       0.00000000      47.35464096
2
Properties=species:S:1:pos:R:3:forces:R:3 energy=3.702380660451128 pbc="F F F"
Sb       0.00000000       0.00000000       0.00000000       0.00000000       0.00000000     -38.10017395
Sb       0.00000000       0.00000000       1.88787879       0.00000000       0.00000000      38.10017395
2
Properties=species:S:1:pos:R:3:forces:R:3 energy=1.659041883348538 pbc="F F F"
Sb       0.00000000       0.00000000       0.00000000       0.00000000       0.00000000     -30.67853928
Sb       0.00000000       0.00000000       1.94747475       0.00000000       0.00000000      30.67853928
2
Properties=species:S:1:pos:R:3:forces:R:3 energy=0.025686876611781817 pbc="F F F"
Sb       0.00000000       0.00000000       0.00000000       0.00000000       0.00000000     -24.24378014
Sb       0.00000000       0.00000000       2.00707071       0.00000000       0.00000000      24.24378014
2
Properties=species:S:1:pos:R:3:forces:R:3 energy=-1.2428229692467647 pbc="F F F"
Sb       0.00000000       0.00000000       0.00000000       0.00000000       0.00000000     -18.52168465
Sb       0.00000000       0.00000000       2.06666667       0.00000000       0.00000000      18.52168465
2
Properties=species:S:1:pos:R:3:forces:R:3 energy=-2.21266807047547 pbc="F F F"
Sb       0.00000000       0.00000000       0.00000000       0.00000000       0.00000000     -14.27110004
Sb       0.00000000       0.00000000       2.12626263       0.00000000       0.00000000      14.27110004
2
Properties=species:S:1:pos:R:3:forces:R:3 energy=-2.9710639870345203 pbc="F F F"
Sb       0.00000000       0.00000000       0.00000000       0.00000000       0.00000000     -11.35134602
Sb       0.00000000       0.00000000       2.18585859       0.00000000       0.00000000      11.35134602
2
Properties=species:S:1:pos:R:3:forces:R:3 energy=-3.5720614379050297 pbc="F F F"
Sb       0.00000000       0.00000000       0.00000000       0.00000000       0.00000000      -8.83916092
Sb       0.00000000       0.00000000       2.24545455       0.00000000       0.00000000       8.83916092
2
Properties=species:S:1:pos:R:3:forces:R:3 energy=-4.034109224387326 pbc="F F F"
Sb       0.00000000       0.00000000       0.00000000       0.00000000       0.00000000      -6.76608849
Sb       0.00000000       0.00000000       2.30505051       0.00000000       0.00000000       6.76608849
2
Properties=species:S:1:pos:R:3:forces:R:3 energy=-4.387554595698296 pbc="F F F"
Sb       0.00000000       0.00000000       0.00000000       0.00000000       0.00000000      -5.14743996
Sb       0.00000000       0.00000000       2.36464646       0.00000000       0.00000000       5.14743996
2
Properties=species:S:1:pos:R:3:forces:R:3 energy=-4.6512181720800685 pbc="F F F"
Sb       0.00000000       0.00000000       0.00000000       0.00000000       0.00000000      -3.71092081
Sb       0.00000000       0.00000000       2.42424242       0.00000000       0.00000000       3.71092081
2
Properties=species:S:1:pos:R:3:forces:R:3 energy=-4.831377560061667 pbc="F F F"
Sb       0.00000000       0.00000000       0.00000000       0.00000000       0.00000000      -2.36022115
Sb       0.00000000       0.00000000       2.48383838       0.00000000       0.00000000       2.36022115
2
Properties=species:S:1:pos:R:3:forces:R:3 energy=-4.9362779966915715 pbc="F F F"
Sb       0.00000000       0.00000000       0.00000000       0.00000000       0.00000000      -1.19396436
Sb       0.00000000       0.00000000       2.54343434       0.00000000       0.00000000       1.19396436
2
Properties=species:S:1:pos:R:3:forces:R:3 energy=-4.978053338714701 pbc="F F F"
Sb       0.00000000       0.00000000       0.00000000       0.00000000       0.00000000      -0.24629563
Sb       0.00000000       0.00000000       2.60303030       0.00000000       0.00000000       0.24629563
2
Properties=species:S:1:pos:R:3:forces:R:3 energy=-4.969996138163469 pbc="F F F"
Sb       0.00000000       0.00000000       0.00000000       0.00000000       0.00000000       0.48315763
Sb       0.00000000       0.00000000       2.66262626       0.00000000       0.00000000      -0.48315763
2
Properties=species:S:1:pos:R:3:forces:R:3 energy=-4.924030462440119 pbc="F F F"
Sb       0.00000000       0.00000000       0.00000000       0.00000000       0.00000000       1.03302813
Sb       0.00000000       0.00000000       2.72222222       0.00000000       0.00000000      -1.03302813
2
Properties=species:S:1:pos:R:3:forces:R:3 energy=-4.8496952774954245 pbc="F F F"
Sb       0.00000000       0.00000000       0.00000000       0.00000000       0.00000000       1.43970883
Sb       0.00000000       0.00000000       2.78181818       0.00000000       0.00000000      -1.43970883
2
Properties=species:S:1:pos:R:3:forces:R:3 energy=-4.754906452614432 pbc="F F F"
Sb       0.00000000       0.00000000       0.00000000       0.00000000       0.00000000       1.72168124
Sb       0.00000000       0.00000000       2.84141414       0.00000000       0.00000000      -1.72168124
2
Properties=species:S:1:pos:R:3:forces:R:3 energy=-4.646641218143463 pbc="F F F"
Sb       0.00000000       0.00000000       0.00000000       0.00000000       0.00000000       1.89551985
Sb       0.00000000       0.00000000       2.90101010       0.00000000       0.00000000      -1.89551985
2
Properties=species:S:1:pos:R:3:forces:R:3 energy=-4.530586105948053 pbc="F F F"
Sb       0.00000000       0.00000000       0.00000000       0.00000000       0.00000000       1.98847520
Sb       0.00000000       0.00000000       2.96060606       0.00000000       0.00000000      -1.98847520
2
Properties=species:S:1:pos:R:3:forces:R:3 energy=-4.410591425369365 pbc="F F F"
Sb       0.00000000       0.00000000       0.00000000       0.00000000       0.00000000       2.03265262
Sb       0.00000000       0.00000000       3.02020202       0.00000000       0.00000000      -2.03265262
2
Properties=species:S:1:pos:R:3:forces:R:3 energy=-4.2888567352159335 pbc="F F F"
Sb       0.00000000       0.00000000       0.00000000       0.00000000       0.00000000       2.04868650
Sb       0.00000000       0.00000000       3.07979798       0.00000000       0.00000000      -2.04868650
2
Properties=species:S:1:pos:R:3:forces:R:3 energy=-4.1668525063143305 pbc="F F F"
Sb       0.00000000       0.00000000       0.00000000       0.00000000       0.00000000       2.04223680
Sb       0.00000000       0.00000000       3.13939394       0.00000000       0.00000000      -2.04223680
2
Properties=species:S:1:pos:R:3:forces:R:3 energy=-4.045787615161354 pbc="F F F"
Sb       0.00000000       0.00000000       0.00000000       0.00000000       0.00000000       2.01826262
Sb       0.00000000       0.00000000       3.19898990       0.00000000       0.00000000      -2.01826262
2
Properties=species:S:1:pos:R:3:forces:R:3 energy=-3.926537043865036 pbc="F F F"
Sb       0.00000000       0.00000000       0.00000000       0.00000000       0.00000000       1.98172569
Sb       0.00000000       0.00000000       3.25858586       0.00000000       0.00000000      -1.98172569
2
Properties=species:S:1:pos:R:3:forces:R:3 energy=-3.8098337241272264 pbc="F F F"
Sb       0.00000000       0.00000000       0.00000000       0.00000000       0.00000000       1.93252683
Sb       0.00000000       0.00000000       3.31818182       0.00000000       0.00000000      -1.93252683
2
Properties=species:S:1:pos:R:3:forces:R:3 energy=-3.6964836787308797 pbc="F F F"
Sb       0.00000000       0.00000000       0.00000000       0.00000000       0.00000000       1.86897135
Sb       0.00000000       0.00000000       3.37777778       0.00000000       0.00000000      -1.86897135
2
Properties=species:S:1:pos:R:3:forces:R:3 energy=-3.5873500842629977 pbc="F F F"
Sb       0.00000000       0.00000000       0.00000000       0.00000000       0.00000000       1.79124713
Sb       0.00000000       0.00000000       3.43737374       0.00000000       0.00000000      -1.79124713
2
Properties=species:S:1:pos:R:3:forces:R:3 energy=-3.483206000529563 pbc="F F F"
Sb       0.00000000       0.00000000       0.00000000       0.00000000       0.00000000       1.70213652
Sb       0.00000000       0.00000000       3.49696970       0.00000000       0.00000000      -1.70213652
2
Properties=species:S:1:pos:R:3:forces:R:3 energy=-3.3846155231677892 pbc="F F F"
Sb       0.00000000       0.00000000       0.00000000       0.00000000       0.00000000       1.60554004
Sb       0.00000000       0.00000000       3.55656566       0.00000000       0.00000000      -1.60554004
2
Properties=species:S:1:pos:R:3:forces:R:3 energy=-3.2919294868623314 pbc="F F F"
Sb       0.00000000       0.00000000       0.00000000       0.00000000       0.00000000       1.50434422
Sb       0.00000000       0.00000000       3.61616162       0.00000000       0.00000000      -1.50434422
2
Properties=species:S:1:pos:R:3:forces:R:3 energy=-3.205370399442091 pbc="F F F"
Sb       0.00000000       0.00000000       0.00000000       0.00000000       0.00000000       1.40016747
Sb       0.00000000       0.00000000       3.67575758       0.00000000       0.00000000      -1.40016747
2
Properties=species:S:1:pos:R:3:forces:R:3 energy=-3.1250691522927814 pbc="F F F"
Sb       0.00000000       0.00000000       0.00000000       0.00000000       0.00000000       1.29468584
Sb       0.00000000       0.00000000       3.73535354       0.00000000       0.00000000      -1.29468584
2
Properties=species:S:1:pos:R:3:forces:R:3 energy=-3.051029203045022 pbc="F F F"
Sb       0.00000000       0.00000000       0.00000000       0.00000000       0.00000000       1.19039178
Sb       0.00000000       0.00000000       3.79494949       0.00000000       0.00000000      -1.19039178
2
Properties=species:S:1:pos:R:3:forces:R:3 energy=-2.983102419110263 pbc="F F F"
Sb       0.00000000       0.00000000       0.00000000       0.00000000       0.00000000       1.09006369
Sb       0.00000000       0.00000000       3.85454545       0.00000000       0.00000000      -1.09006369
2
Properties=species:S:1:pos:R:3:forces:R:3 energy=-2.9209843526669497 pbc="F F F"
Sb       0.00000000       0.00000000       0.00000000       0.00000000       0.00000000       0.99568707
Sb       0.00000000       0.00000000       3.91414141       0.00000000       0.00000000      -0.99568707
2
Properties=species:S:1:pos:R:3:forces:R:3 energy=-2.8642940608714325 pbc="F F F"
Sb       0.00000000       0.00000000       0.00000000       0.00000000       0.00000000       0.90787303
Sb       0.00000000       0.00000000       3.97373737       0.00000000       0.00000000      -0.90787303
2
Properties=species:S:1:pos:R:3:forces:R:3 energy=-2.812653376371813 pbc="F F F"
Sb       0.00000000       0.00000000       0.00000000       0.00000000       0.00000000       0.82611966
Sb       0.00000000       0.00000000       4.03333333       0.00000000       0.00000000      -0.82611966
2
Properties=species:S:1:pos:R:3:forces:R:3 energy=-2.7657238170062772 pbc="F F F"
Sb       0.00000000       0.00000000       0.00000000       0.00000000       0.00000000       0.74958372
Sb       0.00000000       0.00000000       4.09292929       0.00000000       0.00000000      -0.74958372
2
Properties=species:S:1:pos:R:3:forces:R:3 energy=-2.723213966443662 pbc="F F F"
Sb       0.00000000       0.00000000       0.00000000       0.00000000       0.00000000       0.67780828
Sb       0.00000000       0.00000000       4.15252525       0.00000000       0.00000000      -0.67780828
2
Properties=species:S:1:pos:R:3:forces:R:3 energy=-2.684833729494491 pbc="F F F"
Sb       0.00000000       0.00000000       0.00000000       0.00000000       0.00000000       0.61104953
Sb       0.00000000       0.00000000       4.21212121       0.00000000       0.00000000      -0.61104953
2
Properties=species:S:1:pos:R:3:forces:R:3 energy=-2.650265210198277 pbc="F F F"
Sb       0.00000000       0.00000000       0.00000000       0.00000000       0.00000000       0.55014676
Sb       0.00000000       0.00000000       4.27171717       0.00000000       0.00000000      -0.55014676
2
Properties=species:S:1:pos:R:3:forces:R:3 energy=-2.619125067030607 pbc="F F F"
Sb       0.00000000       0.00000000       0.00000000       0.00000000       0.00000000       0.49614337
Sb       0.00000000       0.00000000       4.33131313       0.00000000       0.00000000      -0.49614337
2
Properties=species:S:1:pos:R:3:forces:R:3 energy=-2.590975880967201 pbc="F F F"
Sb       0.00000000       0.00000000       0.00000000       0.00000000       0.00000000       0.44982356
Sb       0.00000000       0.00000000       4.39090909       0.00000000       0.00000000      -0.44982356
2
Properties=species:S:1:pos:R:3:forces:R:3 energy=-2.5653551063342146 pbc="F F F"
Sb       0.00000000       0.00000000       0.00000000       0.00000000       0.00000000       0.41135091
Sb       0.00000000       0.00000000       4.45050505       0.00000000       0.00000000      -0.41135091
2
Properties=species:S:1:pos:R:3:forces:R:3 energy=-2.5418036683664402 pbc="F F F"
Sb       0.00000000       0.00000000       0.00000000       0.00000000       0.00000000       0.38011807
Sb       0.00000000       0.00000000       4.51010101       0.00000000       0.00000000      -0.38011807
2
Properties=species:S:1:pos:R:3:forces:R:3 energy=-2.5199291893121982 pbc="F F F"
Sb       0.00000000       0.00000000       0.00000000       0.00000000       0.00000000       0.35483417
Sb       0.00000000       0.00000000       4.56969697       0.00000000       0.00000000      -0.35483417
2
Properties=species:S:1:pos:R:3:forces:R:3 energy=-2.4994226460556526 pbc="F F F"
Sb       0.00000000       0.00000000       0.00000000       0.00000000       0.00000000       0.33385164
Sb       0.00000000       0.00000000       4.62929293       0.00000000       0.00000000      -0.33385164
2
Properties=species:S:1:pos:R:3:forces:R:3 energy=-2.480082094765301 pbc="F F F"
Sb       0.00000000       0.00000000       0.00000000       0.00000000       0.00000000       0.31558794
Sb       0.00000000       0.00000000       4.68888889       0.00000000       0.00000000      -0.31558794
2
Properties=species:S:1:pos:R:3:forces:R:3 energy=-2.4617758625659505 pbc="F F F"
Sb       0.00000000       0.00000000       0.00000000       0.00000000       0.00000000       0.29890651
Sb       0.00000000       0.00000000       4.74848485       0.00000000       0.00000000      -0.29890651
2
Properties=species:S:1:pos:R:3:forces:R:3 energy=-2.4444347993508573 pbc="F F F"
Sb       0.00000000       0.00000000       0.00000000       0.00000000       0.00000000       0.28332496
Sb       0.00000000       0.00000000       4.80808081       0.00000000       0.00000000      -0.28332496
2
Properties=species:S:1:pos:R:3:forces:R:3 energy=-2.4279817423122663 pbc="F F F"
Sb       0.00000000       0.00000000       0.00000000       0.00000000       0.00000000       0.26897511
Sb       0.00000000       0.00000000       4.86767677       0.00000000       0.00000000      -0.26897511
2
Properties=species:S:1:pos:R:3:forces:R:3 energy=-2.412339988136483 pbc="F F F"
Sb       0.00000000       0.00000000       0.00000000       0.00000000       0.00000000       0.25634062
Sb       0.00000000       0.00000000       4.92727273       0.00000000       0.00000000      -0.25634062
2
Properties=species:S:1:pos:R:3:forces:R:3 energy=-2.3973855712741887 pbc="F F F"
Sb       0.00000000       0.00000000       0.00000000       0.00000000       0.00000000       0.24587564
Sb       0.00000000       0.00000000       4.98686869       0.00000000       0.00000000      -0.24587564
2
Properties=species:S:1:pos:R:3:forces:R:3 energy=-2.3829883226212 pbc="F F F"
Sb       0.00000000       0.00000000       0.00000000       0.00000000       0.00000000       0.23763327
Sb       0.00000000       0.00000000       5.04646465       0.00000000       0.00000000      -0.23763327
2
Properties=species:S:1:pos:R:3:forces:R:3 energy=-2.369030375884707 pbc="F F F"
Sb       0.00000000       0.00000000       0.00000000       0.00000000       0.00000000       0.23107331
Sb       0.00000000       0.00000000       5.10606061       0.00000000       0.00000000      -0.23107331
2
Properties=species:S:1:pos:R:3:forces:R:3 energy=-2.3554348760152517 pbc="F F F"
Sb       0.00000000       0.00000000       0.00000000       0.00000000       0.00000000       0.22503057
Sb       0.00000000       0.00000000       5.16565657       0.00000000       0.00000000      -0.22503057
2
Properties=species:S:1:pos:R:3:forces:R:3 energy=-2.3422255822675946 pbc="F F F"
Sb       0.00000000       0.00000000       0.00000000       0.00000000       0.00000000       0.21794505
Sb       0.00000000       0.00000000       5.22525253       0.00000000       0.00000000      -0.21794505
2
Properties=species:S:1:pos:R:3:forces:R:3 energy=-2.3295111357423126 pbc="F F F"
Sb       0.00000000       0.00000000       0.00000000       0.00000000       0.00000000       0.20820273
Sb       0.00000000       0.00000000       5.28484848       0.00000000       0.00000000      -0.20820273
2
Properties=species:S:1:pos:R:3:forces:R:3 energy=-2.317486564341097 pbc="F F F"
Sb       0.00000000       0.00000000       0.00000000       0.00000000       0.00000000       0.19453605
Sb       0.00000000       0.00000000       5.34444444       0.00000000       0.00000000      -0.19453605
2
Properties=species:S:1:pos:R:3:forces:R:3 energy=-2.3064132809486857 pbc="F F F"
Sb       0.00000000       0.00000000       0.00000000       0.00000000       0.00000000       0.17633952
Sb       0.00000000       0.00000000       5.40404040       0.00000000       0.00000000      -0.17633952
2
Properties=species:S:1:pos:R:3:forces:R:3 energy=-2.2965533226706287 pbc="F F F"
Sb       0.00000000       0.00000000       0.00000000       0.00000000       0.00000000       0.15388335
Sb       0.00000000       0.00000000       5.46363636       0.00000000       0.00000000      -0.15388335
2
Properties=species:S:1:pos:R:3:forces:R:3 energy=-2.288137933433824 pbc="F F F"
Sb       0.00000000       0.00000000       0.00000000       0.00000000       0.00000000       0.12830296
Sb       0.00000000       0.00000000       5.52323232       0.00000000       0.00000000      -0.12830296
2
Properties=species:S:1:pos:R:3:forces:R:3 energy=-2.2812917975635187 pbc="F F F"
Sb       0.00000000       0.00000000       0.00000000       0.00000000       0.00000000       0.10139586
Sb       0.00000000       0.00000000       5.58282828       0.00000000       0.00000000      -0.10139586
2
Properties=species:S:1:pos:R:3:forces:R:3 energy=-2.276034465543049 pbc="F F F"
Sb       0.00000000       0.00000000       0.00000000       0.00000000       0.00000000       0.07532988
Sb       0.00000000       0.00000000       5.64242424       0.00000000       0.00000000      -0.07532988
2
Properties=species:S:1:pos:R:3:forces:R:3 energy=-2.272252311696393 pbc="F F F"
Sb       0.00000000       0.00000000       0.00000000       0.00000000       0.00000000       0.05218451
Sb       0.00000000       0.00000000       5.70202020       0.00000000       0.00000000      -0.05218451
2
Properties=species:S:1:pos:R:3:forces:R:3 energy=-2.26972525686792 pbc="F F F"
Sb       0.00000000       0.00000000       0.00000000       0.00000000       0.00000000       0.03362098
Sb       0.00000000       0.00000000       5.76161616       0.00000000       0.00000000      -0.03362098
2
Properties=species:S:1:pos:R:3:forces:R:3 energy=-2.2681386909352548 pbc="F F F"
Sb       0.00000000       0.00000000       0.00000000       0.00000000       0.00000000       0.02049130
Sb       0.00000000       0.00000000       5.82121212       0.00000000       0.00000000      -0.02049130
2
Properties=species:S:1:pos:R:3:forces:R:3 energy=-2.267172714217772 pbc="F F F"
Sb       0.00000000       0.00000000       0.00000000       0.00000000       0.00000000       0.01274774
Sb       0.00000000       0.00000000       5.88080808       0.00000000       0.00000000      -0.01274774
2
Properties=species:S:1:pos:R:3:forces:R:3 energy=-2.26653120791218 pbc="F F F"
Sb       0.00000000       0.00000000       0.00000000       0.00000000       0.00000000       0.00933369
Sb       0.00000000       0.00000000       5.94040404       0.00000000       0.00000000      -0.00933369
2
Properties=species:S:1:pos:R:3:forces:R:3 energy=-2.2660105509123682 pbc="F F F"
Sb       0.00000000       0.00000000       0.00000000       0.00000000       0.00000000       0.00839876
Sb       0.00000000       0.00000000       6.00000000       0.00000000       0.00000000      -0.00839876
