2
Properties=species:S:1:pos:R:3:forces:R:3 energy=11124212.960443035 pbc="F F F"
Se       0.00000000       0.00000000       0.00000000       0.00000000       0.00000000 -58568624.00000000
Se       0.00000000       0.00000000       0.10000000       0.00000000       0.00000000 58568624.00000000
2
Properties=species:S:1:pos:R:3:forces:R:3 energy=7404553.460443034 pbc="F F F"
Se       0.00000000       0.00000000       0.00000000       0.00000000       0.00000000 -62882892.00000000
Se       0.00000000       0.00000000       0.15959596       0.00000000       0.00000000 62882892.00000000
2
Properties=species:S:1:pos:R:3:forces:R:3 energy=4030922.7104430343 pbc="F F F"
Se       0.00000000       0.00000000       0.00000000       0.00000000       0.00000000 -48239084.00000000
Se       0.00000000       0.00000000       0.21919192       0.00000000       0.00000000 48239084.00000000
2
Properties=species:S:1:pos:R:3:forces:R:3 energy=1763006.0854430373 pbc="F F F"
Se       0.00000000       0.00000000       0.00000000       0.00000000       0.00000000 -27946536.00000000
Se       0.00000000       0.00000000       0.27878788       0.00000000       0.00000000 27946536.00000000
2
Properties=species:S:1:pos:R:3:forces:R:3 energy=607182.5854430373 pbc="F F F"
Se       0.00000000       0.00000000       0.00000000       0.00000000       0.00000000 -12057373.00000000
Se       0.00000000       0.00000000       0.33838384       0.00000000       0.00000000 12057373.00000000
2
Properties=species:S:1:pos:R:3:forces:R:3 energy=175411.28856805005 pbc="F F F"
Se       0.00000000       0.00000000       0.00000000       0.00000000       0.00000000 -3861351.00000000
Se       0.00000000       0.00000000       0.39797980       0.00000000       0.00000000 3861351.00000000
2
Properties=species:S:1:pos:R:3:forces:R:3 energy=36358.58544306588 pbc="F F F"
Se       0.00000000       0.00000000       0.00000000       0.00000000       0.00000000 -1270294.00000000
Se       0.00000000       0.00000000       0.45757576       0.00000000       0.00000000 1270294.00000000
2
Properties=species:S:1:pos:R:3:forces:R:3 energy=4806.245111069477 pbc="F F F"
Se       0.00000000       0.00000000       0.00000000       0.00000000       0.00000000 -162928.79687500
Se       0.00000000       0.00000000       0.51717172       0.00000000       0.00000000  162928.79687500
2
Properties=species:S:1:pos:R:3:forces:R:3 energy=976.4489685578768 pbc="F F F"
Se       0.00000000       0.00000000       0.00000000       0.00000000       0.00000000  -17912.47656250
Se       0.00000000       0.00000000       0.57676768       0.00000000       0.00000000   17912.47656250
2
Properties=species:S:1:pos:R:3:forces:R:3 energy=561.4774110452275 pbc="F F F"
Se       0.00000000       0.00000000       0.00000000       0.00000000       0.00000000   -7839.00488281
Se       0.00000000       0.00000000       0.63636364       0.00000000       0.00000000    7839.00488281
2
Properties=species:S:1:pos:R:3:forces:R:3 energy=157.9132785258602 pbc="F F F"
Se       0.00000000       0.00000000       0.00000000       0.00000000       0.00000000   -3662.53588867
Se       0.00000000       0.00000000       0.69595960       0.00000000       0.00000000    3662.53588867
2
Properties=species:S:1:pos:R:3:forces:R:3 energy=44.559725019984604 pbc="F F F"
Se       0.00000000       0.00000000       0.00000000       0.00000000       0.00000000   -1264.07629395
Se       0.00000000       0.00000000       0.75555556       0.00000000       0.00000000    1264.07629395
2
Properties=species:S:1:pos:R:3:forces:R:3 energy=-46.72333656840662 pbc="F F F"
Se       0.00000000       0.00000000       0.00000000       0.00000000       0.00000000   -1732.09399414
Se       0.00000000       0.00000000       0.81515152       0.00000000       0.00000000    1732.09399414
2
Properties=species:S:1:pos:R:3:forces:R:3 energy=-138.13489224209513 pbc="F F F"
Se       0.00000000       0.00000000       0.00000000       0.00000000       0.00000000   -1166.53381348
Se       0.00000000       0.00000000       0.87474747       0.00000000       0.00000000    1166.53381348
2
Properties=species:S:1:pos:R:3:forces:R:3 energy=-172.96225349167952 pbc="F F F"
Se       0.00000000       0.00000000       0.00000000       0.00000000       0.00000000     212.10987854
Se       0.00000000       0.00000000       0.93434343       0.00000000       0.00000000    -212.10987854
2
Properties=species:S:1:pos:R:3:forces:R:3 energy=-125.48005938344207 pbc="F F F"
Se       0.00000000       0.00000000       0.00000000       0.00000000       0.00000000    1154.00134277
Se       0.00000000       0.00000000       0.99393939       0.00000000       0.00000000   -1154.00134277
2
Properties=species:S:1:pos:R:3:forces:R:3 energy=-57.10335651107479 pbc="F F F"
Se       0.00000000       0.00000000       0.00000000       0.00000000       0.00000000    1190.48156738
Se       0.00000000       0.00000000       1.05353535       0.00000000       0.00000000   -1190.48156738
2
Properties=species:S:1:pos:R:3:forces:R:3 energy=9.524671528105163 pbc="F F F"
Se       0.00000000       0.00000000       0.00000000       0.00000000       0.00000000    1116.65258789
Se       0.00000000       0.00000000       1.11313131       0.00000000       0.00000000   -1116.65258789
2
Properties=species:S:1:pos:R:3:forces:R:3 energy=59.77440240139906 pbc="F F F"
Se       0.00000000       0.00000000       0.00000000       0.00000000       0.00000000     377.12799072
Se       0.00000000       0.00000000       1.17272727       0.00000000       0.00000000    -377.12799072
2
Properties=species:S:1:pos:R:3:forces:R:3 energy=67.35433140727369 pbc="F F F"
Se       0.00000000       0.00000000       0.00000000       0.00000000       0.00000000     -57.45377350
Se       0.00000000       0.00000000       1.23232323       0.00000000       0.00000000      57.45377350
2
Properties=species:S:1:pos:R:3:forces:R:3 energy=57.75815971377069 pbc="F F F"
Se       0.00000000       0.00000000       0.00000000       0.00000000       0.00000000    -231.27362061
Se       0.00000000       0.00000000       1.29191919       0.00000000       0.00000000     231.27362061
2
Properties=species:S:1:pos:R:3:forces:R:3 energy=44.319391262614324 pbc="F F F"
Se       0.00000000       0.00000000       0.00000000       0.00000000       0.00000000    -214.19340515
Se       0.00000000       0.00000000       1.35151515       0.00000000       0.00000000     214.19340515
2
Properties=species:S:1:pos:R:3:forces:R:3 energy=32.685079068955126 pbc="F F F"
Se       0.00000000       0.00000000       0.00000000       0.00000000       0.00000000    -173.99237061
Se       0.00000000       0.00000000       1.41111111       0.00000000       0.00000000     173.99237061
2
Properties=species:S:1:pos:R:3:forces:R:3 energy=23.383589519435557 pbc="F F F"
Se       0.00000000       0.00000000       0.00000000       0.00000000       0.00000000    -139.53614807
Se       0.00000000       0.00000000       1.47070707       0.00000000       0.00000000     139.53614807
2
Properties=species:S:1:pos:R:3:forces:R:3 energy=15.900601622635296 pbc="F F F"
Se       0.00000000       0.00000000       0.00000000       0.00000000       0.00000000    -112.96667480
Se       0.00000000       0.00000000       1.53030303       0.00000000       0.00000000     112.96667480
2
Properties=species:S:1:pos:R:3:forces:R:3 energy=9.918380093031576 pbc="F F F"
Se       0.00000000       0.00000000       0.00000000       0.00000000       0.00000000     -87.78792572
Se       0.00000000       0.00000000       1.58989899       0.00000000       0.00000000      87.78792572
2
Properties=species:S:1:pos:R:3:forces:R:3 energy=5.324550121055724 pbc="F F F"
Se       0.00000000       0.00000000       0.00000000       0.00000000       0.00000000     -67.12074280
Se       0.00000000       0.00000000       1.64949495       0.00000000       0.00000000      67.12074280
2
Properties=species:S:1:pos:R:3:forces:R:3 energy=1.8712732237211522 pbc="F F F"
Se       0.00000000       0.00000000       0.00000000       0.00000000       0.00000000     -49.09590530
Se       0.00000000       0.00000000       1.70909091       0.00000000       0.00000000      49.09590530
2
Properties=species:S:1:pos:R:3:forces:R:3 energy=-0.6110929857048265 pbc="F F F"
Se       0.00000000       0.00000000       0.00000000       0.00000000       0.00000000     -35.38072586
Se       0.00000000       0.00000000       1.76868687       0.00000000       0.00000000      35.38072586
2
Properties=species:S:1:pos:R:3:forces:R:3 energy=-2.4393779621993374 pbc="F F F"
Se       0.00000000       0.00000000       0.00000000       0.00000000       0.00000000     -25.99097443
Se       0.00000000       0.00000000       1.82828283       0.00000000       0.00000000      25.99097443
2
Properties=species:S:1:pos:R:3:forces:R:3 energy=-3.7053383031895555 pbc="F F F"
Se       0.00000000       0.00000000       0.00000000       0.00000000       0.00000000     -16.96039391
Se       0.00000000       0.00000000       1.88787879       0.00000000       0.00000000      16.96039391
2
Properties=species:S:1:pos:R:3:forces:R:3 energy=-4.522766650016474 pbc="F F F"
Se       0.00000000       0.00000000       0.00000000       0.00000000       0.00000000     -10.83749580
Se       0.00000000       0.00000000       1.94747475       0.00000000       0.00000000      10.83749580
2
Properties=species:S:1:pos:R:3:forces:R:3 energy=-5.032973284360546 pbc="F F F"
Se       0.00000000       0.00000000       0.00000000       0.00000000       0.00000000      -6.51716614
Se       0.00000000       0.00000000       2.00707071       0.00000000       0.00000000       6.51716614
2
Properties=species:S:1:pos:R:3:forces:R:3 energy=-5.3230424142159025 pbc="F F F"
Se       0.00000000       0.00000000       0.00000000       0.00000000       0.00000000      -3.42898774
Se       0.00000000       0.00000000       2.06666667       0.00000000       0.00000000       3.42898774
2
Properties=species:S:1:pos:R:3:forces:R:3 energy=-5.4652229912809664 pbc="F F F"
Se       0.00000000       0.00000000       0.00000000       0.00000000       0.00000000      -1.49208474
Se       0.00000000       0.00000000       2.12626263       0.00000000       0.00000000       1.49208474
2
Properties=species:S:1:pos:R:3:forces:R:3 energy=-5.516447164113304 pbc="F F F"
Se       0.00000000       0.00000000       0.00000000       0.00000000       0.00000000      -0.34477443
Se       0.00000000       0.00000000       2.18585859       0.00000000       0.00000000       0.34477443
2
Properties=species:S:1:pos:R:3:forces:R:3 energy=-5.514125494726531 pbc="F F F"
Se       0.00000000       0.00000000       0.00000000       0.00000000       0.00000000       0.39759234
Se       0.00000000       0.00000000       2.24545455       0.00000000       0.00000000      -0.39759234
2
Properties=species:S:1:pos:R:3:forces:R:3 energy=-5.471301372730712 pbc="F F F"
Se       0.00000000       0.00000000       0.00000000       0.00000000       0.00000000       1.02559721
Se       0.00000000       0.00000000       2.30505051       0.00000000       0.00000000      -1.02559721
2
Properties=species:S:1:pos:R:3:forces:R:3 energy=-5.39358919152399 pbc="F F F"
Se       0.00000000       0.00000000       0.00000000       0.00000000       0.00000000       1.57317173
Se       0.00000000       0.00000000       2.36464646       0.00000000       0.00000000      -1.57317173
2
Properties=species:S:1:pos:R:3:forces:R:3 energy=-5.282045389653791 pbc="F F F"
Se       0.00000000       0.00000000       0.00000000       0.00000000       0.00000000       2.20426202
Se       0.00000000       0.00000000       2.42424242       0.00000000       0.00000000      -2.20426202
2
Properties=species:S:1:pos:R:3:forces:R:3 energy=-5.127488775237362 pbc="F F F"
Se       0.00000000       0.00000000       0.00000000       0.00000000       0.00000000       2.99238181
Se       0.00000000       0.00000000       2.48383838       0.00000000       0.00000000      -2.99238181
2
Properties=species:S:1:pos:R:3:forces:R:3 energy=-4.927098383134296 pbc="F F F"
Se       0.00000000       0.00000000       0.00000000       0.00000000       0.00000000       3.69701600
Se       0.00000000       0.00000000       2.54343434       0.00000000       0.00000000      -3.69701600
2
Properties=species:S:1:pos:R:3:forces:R:3 energy=-4.692253221188811 pbc="F F F"
Se       0.00000000       0.00000000       0.00000000       0.00000000       0.00000000       4.13626051
Se       0.00000000       0.00000000       2.60303030       0.00000000       0.00000000      -4.13626051
2
Properties=species:S:1:pos:R:3:forces:R:3 energy=-4.4394697122772095 pbc="F F F"
Se       0.00000000       0.00000000       0.00000000       0.00000000       0.00000000       4.30525255
Se       0.00000000       0.00000000       2.66262626       0.00000000       0.00000000      -4.30525255
2
Properties=species:S:1:pos:R:3:forces:R:3 energy=-4.1836161273164265 pbc="F F F"
Se       0.00000000       0.00000000       0.00000000       0.00000000       0.00000000       4.24795866
Se       0.00000000       0.00000000       2.72222222       0.00000000       0.00000000      -4.24795866
2
Properties=species:S:1:pos:R:3:forces:R:3 energy=-3.9363131997435854 pbc="F F F"
Se       0.00000000       0.00000000       0.00000000       0.00000000       0.00000000       4.03150415
Se       0.00000000       0.00000000       2.78181818       0.00000000       0.00000000      -4.03150415
2
Properties=species:S:1:pos:R:3:forces:R:3 energy=-3.7048191780378996 pbc="F F F"
Se       0.00000000       0.00000000       0.00000000       0.00000000       0.00000000       3.72688460
Se       0.00000000       0.00000000       2.84141414       0.00000000       0.00000000      -3.72688460
2
Properties=species:S:1:pos:R:3:forces:R:3 energy=-3.493007639670265 pbc="F F F"
Se       0.00000000       0.00000000       0.00000000       0.00000000       0.00000000       3.37605929
Se       0.00000000       0.00000000       2.90101010       0.00000000       0.00000000      -3.37605929
2
Properties=species:S:1:pos:R:3:forces:R:3 energy=-3.3027852040023324 pbc="F F F"
Se       0.00000000       0.00000000       0.00000000       0.00000000       0.00000000       3.00702810
Se       0.00000000       0.00000000       2.96060606       0.00000000       0.00000000      -3.00702810
2
Properties=species:S:1:pos:R:3:forces:R:3 energy=-3.1343791356169075 pbc="F F F"
Se       0.00000000       0.00000000       0.00000000       0.00000000       0.00000000       2.64869118
Se       0.00000000       0.00000000       3.02020202       0.00000000       0.00000000      -2.64869118
2
Properties=species:S:1:pos:R:3:forces:R:3 energy=-2.9864213968664357 pbc="F F F"
Se       0.00000000       0.00000000       0.00000000       0.00000000       0.00000000       2.32292700
Se       0.00000000       0.00000000       3.07979798       0.00000000       0.00000000      -2.32292700
2
Properties=species:S:1:pos:R:3:forces:R:3 energy=-2.8567407504205087 pbc="F F F"
Se       0.00000000       0.00000000       0.00000000       0.00000000       0.00000000       2.03554273
Se       0.00000000       0.00000000       3.13939394       0.00000000       0.00000000      -2.03554273
2
Properties=species:S:1:pos:R:3:forces:R:3 energy=-2.743015688719619 pbc="F F F"
Se       0.00000000       0.00000000       0.00000000       0.00000000       0.00000000       1.78766882
Se       0.00000000       0.00000000       3.19898990       0.00000000       0.00000000      -1.78766882
2
Properties=species:S:1:pos:R:3:forces:R:3 energy=-2.6428890316204003 pbc="F F F"
Se       0.00000000       0.00000000       0.00000000       0.00000000       0.00000000       1.57847369
Se       0.00000000       0.00000000       3.25858586       0.00000000       0.00000000      -1.57847369
2
Properties=species:S:1:pos:R:3:forces:R:3 energy=-2.554255587578746 pbc="F F F"
Se       0.00000000       0.00000000       0.00000000       0.00000000       0.00000000       1.40032279
Se       0.00000000       0.00000000       3.31818182       0.00000000       0.00000000      -1.40032279
2
Properties=species:S:1:pos:R:3:forces:R:3 energy=-2.4755810420032134 pbc="F F F"
Se       0.00000000       0.00000000       0.00000000       0.00000000       0.00000000       1.24262917
Se       0.00000000       0.00000000       3.37777778       0.00000000       0.00000000      -1.24262917
2
Properties=species:S:1:pos:R:3:forces:R:3 energy=-2.4058922969667957 pbc="F F F"
Se       0.00000000       0.00000000       0.00000000       0.00000000       0.00000000       1.09786677
Se       0.00000000       0.00000000       3.43737374       0.00000000       0.00000000      -1.09786677
2
Properties=species:S:1:pos:R:3:forces:R:3 energy=-2.344508226107111 pbc="F F F"
Se       0.00000000       0.00000000       0.00000000       0.00000000       0.00000000       0.96396267
Se       0.00000000       0.00000000       3.49696970       0.00000000       0.00000000      -0.96396267
2
Properties=species:S:1:pos:R:3:forces:R:3 energy=-2.2907505244070263 pbc="F F F"
Se       0.00000000       0.00000000       0.00000000       0.00000000       0.00000000       0.84231126
Se       0.00000000       0.00000000       3.55656566       0.00000000       0.00000000      -0.84231126
2
Properties=species:S:1:pos:R:3:forces:R:3 energy=-2.243844782659342 pbc="F F F"
Se       0.00000000       0.00000000       0.00000000       0.00000000       0.00000000       0.73408103
Se       0.00000000       0.00000000       3.61616162       0.00000000       0.00000000      -0.73408103
2
Properties=species:S:1:pos:R:3:forces:R:3 energy=-2.202999506218704 pbc="F F F"
Se       0.00000000       0.00000000       0.00000000       0.00000000       0.00000000       0.63857317
Se       0.00000000       0.00000000       3.67575758       0.00000000       0.00000000      -0.63857317
2
Properties=species:S:1:pos:R:3:forces:R:3 energy=-2.167515329717764 pbc="F F F"
Se       0.00000000       0.00000000       0.00000000       0.00000000       0.00000000       0.55399877
Se       0.00000000       0.00000000       3.73535354       0.00000000       0.00000000      -0.55399877
2
Properties=species:S:1:pos:R:3:forces:R:3 energy=-2.1367873759103935 pbc="F F F"
Se       0.00000000       0.00000000       0.00000000       0.00000000       0.00000000       0.47866899
Se       0.00000000       0.00000000       3.79494949       0.00000000       0.00000000      -0.47866899
2
Properties=species:S:1:pos:R:3:forces:R:3 energy=-2.110300957801615 pbc="F F F"
Se       0.00000000       0.00000000       0.00000000       0.00000000       0.00000000       0.41143101
Se       0.00000000       0.00000000       3.85454545       0.00000000       0.00000000      -0.41143101
2
Properties=species:S:1:pos:R:3:forces:R:3 energy=-2.0876017977479786 pbc="F F F"
Se       0.00000000       0.00000000       0.00000000       0.00000000       0.00000000       0.35148653
Se       0.00000000       0.00000000       3.91414141       0.00000000       0.00000000      -0.35148653
2
Properties=species:S:1:pos:R:3:forces:R:3 energy=-2.0682761064189554 pbc="F F F"
Se       0.00000000       0.00000000       0.00000000       0.00000000       0.00000000       0.29809558
Se       0.00000000       0.00000000       3.97373737       0.00000000       0.00000000      -0.29809558
2
Properties=species:S:1:pos:R:3:forces:R:3 energy=-2.051956951238408 pbc="F F F"
Se       0.00000000       0.00000000       0.00000000       0.00000000       0.00000000       0.25046942
Se       0.00000000       0.00000000       4.03333333       0.00000000       0.00000000      -0.25046942
2
Properties=species:S:1:pos:R:3:forces:R:3 energy=-2.0383229098204008 pbc="F F F"
Se       0.00000000       0.00000000       0.00000000       0.00000000       0.00000000       0.20785214
Se       0.00000000       0.00000000       4.09292929       0.00000000       0.00000000      -0.20785214
2
Properties=species:S:1:pos:R:3:forces:R:3 energy=-2.02709398283923 pbc="F F F"
Se       0.00000000       0.00000000       0.00000000       0.00000000       0.00000000       0.16967484
Se       0.00000000       0.00000000       4.15252525       0.00000000       0.00000000      -0.16967484
2
Properties=species:S:1:pos:R:3:forces:R:3 energy=-2.018016314649516 pbc="F F F"
Se       0.00000000       0.00000000       0.00000000       0.00000000       0.00000000       0.13563924
Se       0.00000000       0.00000000       4.21212121       0.00000000       0.00000000      -0.13563924
2
Properties=species:S:1:pos:R:3:forces:R:3 energy=-2.0108477107734197 pbc="F F F"
Se       0.00000000       0.00000000       0.00000000       0.00000000       0.00000000       0.10568217
Se       0.00000000       0.00000000       4.27171717       0.00000000       0.00000000      -0.10568217
2
Properties=species:S:1:pos:R:3:forces:R:3 energy=-2.0053371196476384 pbc="F F F"
Se       0.00000000       0.00000000       0.00000000       0.00000000       0.00000000       0.07985072
Se       0.00000000       0.00000000       4.33131313       0.00000000       0.00000000      -0.07985072
2
Properties=species:S:1:pos:R:3:forces:R:3 energy=-2.001246442003707 pbc="F F F"
Se       0.00000000       0.00000000       0.00000000       0.00000000       0.00000000       0.05815138
Se       0.00000000       0.00000000       4.39090909       0.00000000       0.00000000      -0.05815138
2
Properties=species:S:1:pos:R:3:forces:R:3 energy=-1.998327108826451 pbc="F F F"
Se       0.00000000       0.00000000       0.00000000       0.00000000       0.00000000       0.04046505
Se       0.00000000       0.00000000       4.45050505       0.00000000       0.00000000      -0.04046505
2
Properties=species:S:1:pos:R:3:forces:R:3 energy=-1.9963477252378694 pbc="F F F"
Se       0.00000000       0.00000000       0.00000000       0.00000000       0.00000000       0.02653421
Se       0.00000000       0.00000000       4.51010101       0.00000000       0.00000000      -0.02653421
2
Properties=species:S:1:pos:R:3:forces:R:3 energy=-1.995096392910397 pbc="F F F"
Se       0.00000000       0.00000000       0.00000000       0.00000000       0.00000000       0.01600082
Se       0.00000000       0.00000000       4.56969697       0.00000000       0.00000000      -0.01600082
2
Properties=species:S:1:pos:R:3:forces:R:3 energy=-1.994381703338997 pbc="F F F"
Se       0.00000000       0.00000000       0.00000000       0.00000000       0.00000000       0.00846805
Se       0.00000000       0.00000000       4.62929293       0.00000000       0.00000000      -0.00846805
2
Properties=species:S:1:pos:R:3:forces:R:3 energy=-1.9940360614460675 pbc="F F F"
Se       0.00000000       0.00000000       0.00000000       0.00000000       0.00000000       0.00355030
Se       0.00000000       0.00000000       4.68888889       0.00000000       0.00000000      -0.00355030
2
Properties=species:S:1:pos:R:3:forces:R:3 energy=-1.9939152546777055 pbc="F F F"
Se       0.00000000       0.00000000       0.00000000       0.00000000       0.00000000       0.00090838
Se       0.00000000       0.00000000       4.74848485       0.00000000       0.00000000      -0.00090838
2
Properties=species:S:1:pos:R:3:forces:R:3 energy=-1.9938879475390716 pbc="F F F"
Se       0.00000000       0.00000000       0.00000000       0.00000000       0.00000000       0.00026206
Se       0.00000000       0.00000000       4.80808081       0.00000000       0.00000000      -0.00026206
2
Properties=species:S:1:pos:R:3:forces:R:3 energy=-1.9938477173568965 pbc="F F F"
Se       0.00000000       0.00000000       0.00000000       0.00000000       0.00000000       0.00137946
Se       0.00000000       0.00000000       4.86767677       0.00000000       0.00000000      -0.00137946
2
Properties=species:S:1:pos:R:3:forces:R:3 energy=-1.993693023951016 pbc="F F F"
Se       0.00000000       0.00000000       0.00000000       0.00000000       0.00000000       0.00403973
Se       0.00000000       0.00000000       4.92727273       0.00000000       0.00000000      -0.00403973
2
Properties=species:S:1:pos:R:3:forces:R:3 energy=-1.9933391828323903 pbc="F F F"
Se       0.00000000       0.00000000       0.00000000       0.00000000       0.00000000       0.00798339
Se       0.00000000       0.00000000       4.98686869       0.00000000       0.00000000      -0.00798339
2
Properties=species:S:1:pos:R:3:forces:R:3 energy=-1.992720815121205 pbc="F F F"
Se       0.00000000       0.00000000       0.00000000       0.00000000       0.00000000       0.01286557
Se       0.00000000       0.00000000       5.04646465       0.00000000       0.00000000      -0.01286557
2
Properties=species:S:1:pos:R:3:forces:R:3 energy=-1.991798528810775 pbc="F F F"
Se       0.00000000       0.00000000       0.00000000       0.00000000       0.00000000       0.01823088
Se       0.00000000       0.00000000       5.10606061       0.00000000       0.00000000      -0.01823088
2
Properties=species:S:1:pos:R:3:forces:R:3 energy=-1.990550422813805 pbc="F F F"
Se       0.00000000       0.00000000       0.00000000       0.00000000       0.00000000       0.02352240
Se       0.00000000       0.00000000       5.16565657       0.00000000       0.00000000      -0.02352240
2
Properties=species:S:1:pos:R:3:forces:R:3 energy=-1.9890069150818723 pbc="F F F"
Se       0.00000000       0.00000000       0.00000000       0.00000000       0.00000000       0.02813372
Se       0.00000000       0.00000000       5.22525253       0.00000000       0.00000000      -0.02813372
2
Properties=species:S:1:pos:R:3:forces:R:3 energy=-1.9872216737537534 pbc="F F F"
Se       0.00000000       0.00000000       0.00000000       0.00000000       0.00000000       0.03149892
Se       0.00000000       0.00000000       5.28484848       0.00000000       0.00000000      -0.03149892
2
Properties=species:S:1:pos:R:3:forces:R:3 energy=-1.9852869337572403 pbc="F F F"
Se       0.00000000       0.00000000       0.00000000       0.00000000       0.00000000       0.03318692
Se       0.00000000       0.00000000       5.34444444       0.00000000       0.00000000      -0.03318692
2
Properties=species:S:1:pos:R:3:forces:R:3 energy=-1.9833048937072484 pbc="F F F"
Se       0.00000000       0.00000000       0.00000000       0.00000000       0.00000000       0.03298656
Se       0.00000000       0.00000000       5.40404040       0.00000000       0.00000000      -0.03298656
2
Properties=species:S:1:pos:R:3:forces:R:3 energy=-1.9813896525568047 pbc="F F F"
Se       0.00000000       0.00000000       0.00000000       0.00000000       0.00000000       0.03095597
Se       0.00000000       0.00000000       5.46363636       0.00000000       0.00000000      -0.03095597
2
Properties=species:S:1:pos:R:3:forces:R:3 energy=-1.9796462465810851 pbc="F F F"
Se       0.00000000       0.00000000       0.00000000       0.00000000       0.00000000       0.02741242
Se       0.00000000       0.00000000       5.52323232       0.00000000       0.00000000      -0.02741242
2
Properties=species:S:1:pos:R:3:forces:R:3 energy=-1.9781434886663316 pbc="F F F"
Se       0.00000000       0.00000000       0.00000000       0.00000000       0.00000000       0.02287822
Se       0.00000000       0.00000000       5.58282828       0.00000000       0.00000000      -0.02287822
2
Properties=species:S:1:pos:R:3:forces:R:3 energy=-1.9769244519957088 pbc="F F F"
Se       0.00000000       0.00000000       0.00000000       0.00000000       0.00000000       0.01797802
Se       0.00000000       0.00000000       5.64242424       0.00000000       0.00000000      -0.01797802
2
Properties=species:S:1:pos:R:3:forces:R:3 energy=-1.9759950627834406 pbc="F F F"
Se       0.00000000       0.00000000       0.00000000       0.00000000       0.00000000       0.01332156
Se       0.00000000       0.00000000       5.70202020       0.00000000       0.00000000      -0.01332156
2
Properties=species:S:1:pos:R:3:forces:R:3 energy=-1.9753250436537049 pbc="F F F"
Se       0.00000000       0.00000000       0.00000000       0.00000000       0.00000000       0.00940714
Se       0.00000000       0.00000000       5.76161616       0.00000000       0.00000000      -0.00940714
2
Properties=species:S:1:pos:R:3:forces:R:3 energy=-1.9748545941125806 pbc="F F F"
Se       0.00000000       0.00000000       0.00000000       0.00000000       0.00000000       0.00652816
Se       0.00000000       0.00000000       5.82121212       0.00000000       0.00000000      -0.00652816
2
Properties=species:S:1:pos:R:3:forces:R:3 energy=-1.9745234918698984 pbc="F F F"
Se       0.00000000       0.00000000       0.00000000       0.00000000       0.00000000       0.00474780
Se       0.00000000       0.00000000       5.88080808       0.00000000       0.00000000      -0.00474780
2
Properties=species:S:1:pos:R:3:forces:R:3 energy=-1.9742691759871414 pbc="F F F"
Se       0.00000000       0.00000000       0.00000000       0.00000000       0.00000000       0.00388066
Se       0.00000000       0.00000000       5.94040404       0.00000000       0.00000000      -0.00388066
2
Properties=species:S:1:pos:R:3:forces:R:3 energy=-1.9740496453564607 pbc="F F F"
Se       0.00000000       0.00000000       0.00000000       0.00000000       0.00000000       0.00354915
Se       0.00000000       0.00000000       6.00000000       0.00000000       0.00000000      -0.00354915
