2
Properties=species:S:1:pos:R:3:forces:R:3 energy=-115141160.0916397 pbc="F F F"
Sr       0.00000000       0.00000000       0.00000000       0.00000000       0.00000000 660317888.00000000
Sr       0.00000000       0.00000000       0.10000000       0.00000000       0.00000000 -660317888.00000000
2
Properties=species:S:1:pos:R:3:forces:R:3 energy=-73170216.0916397 pbc="F F F"
Sr       0.00000000       0.00000000       0.00000000       0.00000000       0.00000000 699369408.00000000
Sr       0.00000000       0.00000000       0.15959596       0.00000000       0.00000000 -699369408.00000000
2
Properties=species:S:1:pos:R:3:forces:R:3 energy=-36295140.0916397 pbc="F F F"
Sr       0.00000000       0.00000000       0.00000000       0.00000000       0.00000000 514130816.00000000
Sr       0.00000000       0.00000000       0.21919192       0.00000000       0.00000000 -514130816.00000000
2
Properties=species:S:1:pos:R:3:forces:R:3 energy=-13105569.091639698 pbc="F F F"
Sr       0.00000000       0.00000000       0.00000000       0.00000000       0.00000000 266731120.00000000
Sr       0.00000000       0.00000000       0.27878788       0.00000000       0.00000000 -266731120.00000000
2
Properties=species:S:1:pos:R:3:forces:R:3 energy=-3024883.5916396966 pbc="F F F"
Sr       0.00000000       0.00000000       0.00000000       0.00000000       0.00000000 89072728.00000000
Sr       0.00000000       0.00000000       0.33838384       0.00000000       0.00000000 -89072728.00000000
2
Properties=species:S:1:pos:R:3:forces:R:3 energy=-390982.5603896968 pbc="F F F"
Sr       0.00000000       0.00000000       0.00000000       0.00000000       0.00000000 16261355.00000000
Sr       0.00000000       0.00000000       0.39797980       0.00000000       0.00000000 -16261355.00000000
2
Properties=species:S:1:pos:R:3:forces:R:3 energy=-3829.8367568716 pbc="F F F"
Sr       0.00000000       0.00000000       0.00000000       0.00000000       0.00000000  980385.50000000
Sr       0.00000000       0.00000000       0.45757576       0.00000000       0.00000000 -980385.50000000
2
Properties=species:S:1:pos:R:3:forces:R:3 energy=1063.7584579784857 pbc="F F F"
Sr       0.00000000       0.00000000       0.00000000       0.00000000       0.00000000     212.57730103
Sr       0.00000000       0.00000000       0.51717172       0.00000000       0.00000000    -212.57730103
2
Properties=species:S:1:pos:R:3:forces:R:3 energy=988.8768662006175 pbc="F F F"
Sr       0.00000000       0.00000000       0.00000000       0.00000000       0.00000000   -6748.92822266
Sr       0.00000000       0.00000000       0.57676768       0.00000000       0.00000000    6748.92822266
2
Properties=species:S:1:pos:R:3:forces:R:3 energy=522.0946396634602 pbc="F F F"
Sr       0.00000000       0.00000000       0.00000000       0.00000000       0.00000000   -7700.20849609
Sr       0.00000000       0.00000000       0.63636364       0.00000000       0.00000000    7700.20849609
2
Properties=species:S:1:pos:R:3:forces:R:3 energy=226.1378068284031 pbc="F F F"
Sr       0.00000000       0.00000000       0.00000000       0.00000000       0.00000000   -2635.70434570
Sr       0.00000000       0.00000000       0.69595960       0.00000000       0.00000000    2635.70434570
2
Properties=species:S:1:pos:R:3:forces:R:3 energy=114.50978566419644 pbc="F F F"
Sr       0.00000000       0.00000000       0.00000000       0.00000000       0.00000000   -1089.49304199
Sr       0.00000000       0.00000000       0.75555556       0.00000000       0.00000000    1089.49304199
2
Properties=species:S:1:pos:R:3:forces:R:3 energy=76.78148377628492 pbc="F F F"
Sr       0.00000000       0.00000000       0.00000000       0.00000000       0.00000000    -258.01620483
Sr       0.00000000       0.00000000       0.81515152       0.00000000       0.00000000     258.01620483
2
Properties=species:S:1:pos:R:3:forces:R:3 energy=63.9714558521685 pbc="F F F"
Sr       0.00000000       0.00000000       0.00000000       0.00000000       0.00000000    -141.83258057
Sr       0.00000000       0.00000000       0.87474747       0.00000000       0.00000000     141.83258057
2
Properties=species:S:1:pos:R:3:forces:R:3 energy=58.99118189248353 pbc="F F F"
Sr       0.00000000       0.00000000       0.00000000       0.00000000       0.00000000     -80.30307007
Sr       0.00000000       0.00000000       0.93434343       0.00000000       0.00000000      80.30307007
2
Properties=species:S:1:pos:R:3:forces:R:3 energy=59.76025569559388 pbc="F F F"
Sr       0.00000000       0.00000000       0.00000000       0.00000000       0.00000000     113.88424683
Sr       0.00000000       0.00000000       0.99393939       0.00000000       0.00000000    -113.88424683
2
Properties=species:S:1:pos:R:3:forces:R:3 energy=65.01570732247463 pbc="F F F"
Sr       0.00000000       0.00000000       0.00000000       0.00000000       0.00000000      35.28855133
Sr       0.00000000       0.00000000       1.05353535       0.00000000       0.00000000     -35.28855133
2
Properties=species:S:1:pos:R:3:forces:R:3 energy=63.23336308090302 pbc="F F F"
Sr       0.00000000       0.00000000       0.00000000       0.00000000       0.00000000    -116.03239441
Sr       0.00000000       0.00000000       1.11313131       0.00000000       0.00000000     116.03239441
2
Properties=species:S:1:pos:R:3:forces:R:3 energy=62.29490253113375 pbc="F F F"
Sr       0.00000000       0.00000000       0.00000000       0.00000000       0.00000000      22.63536453
Sr       0.00000000       0.00000000       1.17272727       0.00000000       0.00000000     -22.63536453
2
Properties=species:S:1:pos:R:3:forces:R:3 energy=61.13402247067815 pbc="F F F"
Sr       0.00000000       0.00000000       0.00000000       0.00000000       0.00000000     -52.24327087
Sr       0.00000000       0.00000000       1.23232323       0.00000000       0.00000000      52.24327087
2
Properties=species:S:1:pos:R:3:forces:R:3 energy=55.731008601088256 pbc="F F F"
Sr       0.00000000       0.00000000       0.00000000       0.00000000       0.00000000    -124.22630310
Sr       0.00000000       0.00000000       1.29191919       0.00000000       0.00000000     124.22630310
2
Properties=species:S:1:pos:R:3:forces:R:3 energy=48.08392692153556 pbc="F F F"
Sr       0.00000000       0.00000000       0.00000000       0.00000000       0.00000000    -125.95167542
Sr       0.00000000       0.00000000       1.35151515       0.00000000       0.00000000     125.95167542
2
Properties=species:S:1:pos:R:3:forces:R:3 energy=40.616887920645446 pbc="F F F"
Sr       0.00000000       0.00000000       0.00000000       0.00000000       0.00000000    -123.06607819
Sr       0.00000000       0.00000000       1.41111111       0.00000000       0.00000000     123.06607819
2
Properties=species:S:1:pos:R:3:forces:R:3 energy=33.82286881677963 pbc="F F F"
Sr       0.00000000       0.00000000       0.00000000       0.00000000       0.00000000    -102.71804810
Sr       0.00000000       0.00000000       1.47070707       0.00000000       0.00000000     102.71804810
2
Properties=species:S:1:pos:R:3:forces:R:3 energy=28.481311570147092 pbc="F F F"
Sr       0.00000000       0.00000000       0.00000000       0.00000000       0.00000000     -77.73647308
Sr       0.00000000       0.00000000       1.53030303       0.00000000       0.00000000      77.73647308
2
Properties=species:S:1:pos:R:3:forces:R:3 energy=24.33097052290086 pbc="F F F"
Sr       0.00000000       0.00000000       0.00000000       0.00000000       0.00000000     -63.21399689
Sr       0.00000000       0.00000000       1.58989899       0.00000000       0.00000000      63.21399689
2
Properties=species:S:1:pos:R:3:forces:R:3 energy=20.914864168160843 pbc="F F F"
Sr       0.00000000       0.00000000       0.00000000       0.00000000       0.00000000     -50.88454056
Sr       0.00000000       0.00000000       1.64949495       0.00000000       0.00000000      50.88454056
2
Properties=species:S:1:pos:R:3:forces:R:3 energy=18.158979888963565 pbc="F F F"
Sr       0.00000000       0.00000000       0.00000000       0.00000000       0.00000000     -42.50441742
Sr       0.00000000       0.00000000       1.70909091       0.00000000       0.00000000      42.50441742
2
Properties=species:S:1:pos:R:3:forces:R:3 energy=15.890275540001204 pbc="F F F"
Sr       0.00000000       0.00000000       0.00000000       0.00000000       0.00000000     -33.70254517
Sr       0.00000000       0.00000000       1.76868687       0.00000000       0.00000000      33.70254517
2
Properties=species:S:1:pos:R:3:forces:R:3 energy=14.123071684878248 pbc="F F F"
Sr       0.00000000       0.00000000       0.00000000       0.00000000       0.00000000     -25.53183937
Sr       0.00000000       0.00000000       1.82828283       0.00000000       0.00000000      25.53183937
2
Properties=species:S:1:pos:R:3:forces:R:3 energy=12.737125479168126 pbc="F F F"
Sr       0.00000000       0.00000000       0.00000000       0.00000000       0.00000000     -21.45457458
Sr       0.00000000       0.00000000       1.88787879       0.00000000       0.00000000      21.45457458
2
Properties=species:S:1:pos:R:3:forces:R:3 energy=11.499853125977666 pbc="F F F"
Sr       0.00000000       0.00000000       0.00000000       0.00000000       0.00000000     -20.52182007
Sr       0.00000000       0.00000000       1.94747475       0.00000000       0.00000000      20.52182007
2
Properties=species:S:1:pos:R:3:forces:R:3 energy=10.277956036509492 pbc="F F F"
Sr       0.00000000       0.00000000       0.00000000       0.00000000       0.00000000     -20.38184166
Sr       0.00000000       0.00000000       2.00707071       0.00000000       0.00000000      20.38184166
2
Properties=species:S:1:pos:R:3:forces:R:3 energy=9.069590070732737 pbc="F F F"
Sr       0.00000000       0.00000000       0.00000000       0.00000000       0.00000000     -20.21178627
Sr       0.00000000       0.00000000       2.06666667       0.00000000       0.00000000      20.21178627
2
Properties=species:S:1:pos:R:3:forces:R:3 energy=7.889106474556763 pbc="F F F"
Sr       0.00000000       0.00000000       0.00000000       0.00000000       0.00000000     -19.16177368
Sr       0.00000000       0.00000000       2.12626263       0.00000000       0.00000000      19.16177368
2
Properties=species:S:1:pos:R:3:forces:R:3 energy=6.792944010808705 pbc="F F F"
Sr       0.00000000       0.00000000       0.00000000       0.00000000       0.00000000     -17.66692162
Sr       0.00000000       0.00000000       2.18585859       0.00000000       0.00000000      17.66692162
2
Properties=species:S:1:pos:R:3:forces:R:3 energy=5.7919502146584705 pbc="F F F"
Sr       0.00000000       0.00000000       0.00000000       0.00000000       0.00000000     -15.80118370
Sr       0.00000000       0.00000000       2.24545455       0.00000000       0.00000000      15.80118370
2
Properties=species:S:1:pos:R:3:forces:R:3 energy=4.9154557641953 pbc="F F F"
Sr       0.00000000       0.00000000       0.00000000       0.00000000       0.00000000     -13.61574364
Sr       0.00000000       0.00000000       2.30505051       0.00000000       0.00000000      13.61574364
2
Properties=species:S:1:pos:R:3:forces:R:3 energy=4.16413727701156 pbc="F F F"
Sr       0.00000000       0.00000000       0.00000000       0.00000000       0.00000000     -11.67522335
Sr       0.00000000       0.00000000       2.36464646       0.00000000       0.00000000      11.67522335
2
Properties=species:S:1:pos:R:3:forces:R:3 energy=3.5161895347280296 pbc="F F F"
Sr       0.00000000       0.00000000       0.00000000       0.00000000       0.00000000     -10.10673523
Sr       0.00000000       0.00000000       2.42424242       0.00000000       0.00000000      10.10673523
2
Properties=species:S:1:pos:R:3:forces:R:3 energy=2.956032917574279 pbc="F F F"
Sr       0.00000000       0.00000000       0.00000000       0.00000000       0.00000000      -8.71144581
Sr       0.00000000       0.00000000       2.48383838       0.00000000       0.00000000       8.71144581
2
Properties=species:S:1:pos:R:3:forces:R:3 energy=2.4770285658526294 pbc="F F F"
Sr       0.00000000       0.00000000       0.00000000       0.00000000       0.00000000      -7.37844419
Sr       0.00000000       0.00000000       2.54343434       0.00000000       0.00000000       7.37844419
2
Properties=species:S:1:pos:R:3:forces:R:3 energy=2.0713923140321957 pbc="F F F"
Sr       0.00000000       0.00000000       0.00000000       0.00000000       0.00000000      -6.29576302
Sr       0.00000000       0.00000000       2.60303030       0.00000000       0.00000000       6.29576302
2
Properties=species:S:1:pos:R:3:forces:R:3 energy=1.7200370295771132 pbc="F F F"
Sr       0.00000000       0.00000000       0.00000000       0.00000000       0.00000000      -5.53658199
Sr       0.00000000       0.00000000       2.66262626       0.00000000       0.00000000       5.53658199
2
Properties=species:S:1:pos:R:3:forces:R:3 energy=1.4084447413073733 pbc="F F F"
Sr       0.00000000       0.00000000       0.00000000       0.00000000       0.00000000      -4.93286324
Sr       0.00000000       0.00000000       2.72222222       0.00000000       0.00000000       4.93286324
2
Properties=species:S:1:pos:R:3:forces:R:3 energy=1.1312765553245117 pbc="F F F"
Sr       0.00000000       0.00000000       0.00000000       0.00000000       0.00000000      -4.37363768
Sr       0.00000000       0.00000000       2.78181818       0.00000000       0.00000000       4.37363768
2
Properties=species:S:1:pos:R:3:forces:R:3 energy=0.8863931804041834 pbc="F F F"
Sr       0.00000000       0.00000000       0.00000000       0.00000000       0.00000000      -3.85265756
Sr       0.00000000       0.00000000       2.84141414       0.00000000       0.00000000       3.85265756
2
Properties=species:S:1:pos:R:3:forces:R:3 energy=0.6709009182526127 pbc="F F F"
Sr       0.00000000       0.00000000       0.00000000       0.00000000       0.00000000      -3.39014268
Sr       0.00000000       0.00000000       2.90101010       0.00000000       0.00000000       3.39014268
2
Properties=species:S:1:pos:R:3:forces:R:3 energy=0.48096944835571503 pbc="F F F"
Sr       0.00000000       0.00000000       0.00000000       0.00000000       0.00000000      -2.99461436
Sr       0.00000000       0.00000000       2.96060606       0.00000000       0.00000000       2.99461436
2
Properties=species:S:1:pos:R:3:forces:R:3 energy=0.31286086790907736 pbc="F F F"
Sr       0.00000000       0.00000000       0.00000000       0.00000000       0.00000000      -2.65468335
Sr       0.00000000       0.00000000       3.02020202       0.00000000       0.00000000       2.65468335
2
Properties=species:S:1:pos:R:3:forces:R:3 energy=0.16378595830556042 pbc="F F F"
Sr       0.00000000       0.00000000       0.00000000       0.00000000       0.00000000      -2.35372615
Sr       0.00000000       0.00000000       3.07979798       0.00000000       0.00000000       2.35372615
2
Properties=species:S:1:pos:R:3:forces:R:3 energy=0.031673300916064046 pbc="F F F"
Sr       0.00000000       0.00000000       0.00000000       0.00000000       0.00000000      -2.08533359
Sr       0.00000000       0.00000000       3.13939394       0.00000000       0.00000000       2.08533359
2
Properties=species:S:1:pos:R:3:forces:R:3 energy=-0.0854211866965028 pbc="F F F"
Sr       0.00000000       0.00000000       0.00000000       0.00000000       0.00000000      -1.84961426
Sr       0.00000000       0.00000000       3.19898990       0.00000000       0.00000000       1.84961426
2
Properties=species:S:1:pos:R:3:forces:R:3 energy=-0.1893781722989984 pbc="F F F"
Sr       0.00000000       0.00000000       0.00000000       0.00000000       0.00000000      -1.64359128
Sr       0.00000000       0.00000000       3.25858586       0.00000000       0.00000000       1.64359128
2
Properties=species:S:1:pos:R:3:forces:R:3 energy=-0.2817662660885267 pbc="F F F"
Sr       0.00000000       0.00000000       0.00000000       0.00000000       0.00000000      -1.45994008
Sr       0.00000000       0.00000000       3.31818182       0.00000000       0.00000000       1.45994008
2
Properties=species:S:1:pos:R:3:forces:R:3 energy=-0.36371134196851246 pbc="F F F"
Sr       0.00000000       0.00000000       0.00000000       0.00000000       0.00000000      -1.29258370
Sr       0.00000000       0.00000000       3.37777778       0.00000000       0.00000000       1.29258370
2
Properties=species:S:1:pos:R:3:forces:R:3 energy=-0.4360923322232022 pbc="F F F"
Sr       0.00000000       0.00000000       0.00000000       0.00000000       0.00000000      -1.13845897
Sr       0.00000000       0.00000000       3.43737374       0.00000000       0.00000000       1.13845897
2
Properties=species:S:1:pos:R:3:forces:R:3 energy=-0.49961928942743494 pbc="F F F"
Sr       0.00000000       0.00000000       0.00000000       0.00000000       0.00000000      -0.99483854
Sr       0.00000000       0.00000000       3.49696970       0.00000000       0.00000000       0.99483854
2
Properties=species:S:1:pos:R:3:forces:R:3 energy=-0.5548247780352175 pbc="F F F"
Sr       0.00000000       0.00000000       0.00000000       0.00000000       0.00000000      -0.85897726
Sr       0.00000000       0.00000000       3.55656566       0.00000000       0.00000000       0.85897726
2
Properties=species:S:1:pos:R:3:forces:R:3 energy=-0.6021350071435081 pbc="F F F"
Sr       0.00000000       0.00000000       0.00000000       0.00000000       0.00000000      -0.72995019
Sr       0.00000000       0.00000000       3.61616162       0.00000000       0.00000000       0.72995019
2
Properties=species:S:1:pos:R:3:forces:R:3 energy=-0.6419878200103913 pbc="F F F"
Sr       0.00000000       0.00000000       0.00000000       0.00000000       0.00000000      -0.60893613
Sr       0.00000000       0.00000000       3.67575758       0.00000000       0.00000000       0.60893613
2
Properties=species:S:1:pos:R:3:forces:R:3 energy=-0.6749111774450434 pbc="F F F"
Sr       0.00000000       0.00000000       0.00000000       0.00000000       0.00000000      -0.49768078
Sr       0.00000000       0.00000000       3.73535354       0.00000000       0.00000000       0.49768078
2
Properties=species:S:1:pos:R:3:forces:R:3 energy=-0.7015153066656511 pbc="F F F"
Sr       0.00000000       0.00000000       0.00000000       0.00000000       0.00000000      -0.39691523
Sr       0.00000000       0.00000000       3.79494949       0.00000000       0.00000000       0.39691523
2
Properties=species:S:1:pos:R:3:forces:R:3 energy=-0.7224101434507639 pbc="F F F"
Sr       0.00000000       0.00000000       0.00000000       0.00000000       0.00000000      -0.30584797
Sr       0.00000000       0.00000000       3.85454545       0.00000000       0.00000000       0.30584797
2
Properties=species:S:1:pos:R:3:forces:R:3 energy=-0.7381283312900921 pbc="F F F"
Sr       0.00000000       0.00000000       0.00000000       0.00000000       0.00000000      -0.22273584
Sr       0.00000000       0.00000000       3.91414141       0.00000000       0.00000000       0.22273584
2
Properties=species:S:1:pos:R:3:forces:R:3 energy=-0.7490831923910715 pbc="F F F"
Sr       0.00000000       0.00000000       0.00000000       0.00000000       0.00000000      -0.14588343
Sr       0.00000000       0.00000000       3.97373737       0.00000000       0.00000000       0.14588343
2
Properties=species:S:1:pos:R:3:forces:R:3 energy=-0.7556242549223207 pbc="F F F"
Sr       0.00000000       0.00000000       0.00000000       0.00000000       0.00000000      -0.07441203
Sr       0.00000000       0.00000000       4.03333333       0.00000000       0.00000000       0.07441203
2
Properties=species:S:1:pos:R:3:forces:R:3 energy=-0.7580629529445047 pbc="F F F"
Sr       0.00000000       0.00000000       0.00000000       0.00000000       0.00000000      -0.00852163
Sr       0.00000000       0.00000000       4.09292929       0.00000000       0.00000000       0.00852163
2
Properties=species:S:1:pos:R:3:forces:R:3 energy=-0.756769218350497 pbc="F F F"
Sr       0.00000000       0.00000000       0.00000000       0.00000000       0.00000000       0.05072056
Sr       0.00000000       0.00000000       4.15252525       0.00000000       0.00000000      -0.05072056
2
Properties=species:S:1:pos:R:3:forces:R:3 energy=-0.7521777951341702 pbc="F F F"
Sr       0.00000000       0.00000000       0.00000000       0.00000000       0.00000000       0.10197554
Sr       0.00000000       0.00000000       4.21212121       0.00000000       0.00000000      -0.10197554
2
Properties=species:S:1:pos:R:3:forces:R:3 energy=-0.7447892472665637 pbc="F F F"
Sr       0.00000000       0.00000000       0.00000000       0.00000000       0.00000000       0.14454518
Sr       0.00000000       0.00000000       4.27171717       0.00000000       0.00000000      -0.14454518
2
Properties=species:S:1:pos:R:3:forces:R:3 energy=-0.7351045705599788 pbc="F F F"
Sr       0.00000000       0.00000000       0.00000000       0.00000000       0.00000000       0.17938671
Sr       0.00000000       0.00000000       4.33131313       0.00000000       0.00000000      -0.17938671
2
Properties=species:S:1:pos:R:3:forces:R:3 energy=-0.7235021206703075 pbc="F F F"
Sr       0.00000000       0.00000000       0.00000000       0.00000000       0.00000000       0.20950115
Sr       0.00000000       0.00000000       4.39090909       0.00000000       0.00000000      -0.20950115
2
Properties=species:S:1:pos:R:3:forces:R:3 energy=-0.7101496708375075 pbc="F F F"
Sr       0.00000000       0.00000000       0.00000000       0.00000000       0.00000000       0.23870783
Sr       0.00000000       0.00000000       4.45050505       0.00000000       0.00000000      -0.23870783
2
Properties=species:S:1:pos:R:3:forces:R:3 energy=-0.6950236614328213 pbc="F F F"
Sr       0.00000000       0.00000000       0.00000000       0.00000000       0.00000000       0.26912761
Sr       0.00000000       0.00000000       4.51010101       0.00000000       0.00000000      -0.26912761
2
Properties=species:S:1:pos:R:3:forces:R:3 energy=-0.6780651128701555 pbc="F F F"
Sr       0.00000000       0.00000000       0.00000000       0.00000000       0.00000000       0.29984227
Sr       0.00000000       0.00000000       4.56969697       0.00000000       0.00000000      -0.29984227
2
Properties=species:S:1:pos:R:3:forces:R:3 energy=-0.6593320928860603 pbc="F F F"
Sr       0.00000000       0.00000000       0.00000000       0.00000000       0.00000000       0.32815203
Sr       0.00000000       0.00000000       4.62929293       0.00000000       0.00000000      -0.32815203
2
Properties=species:S:1:pos:R:3:forces:R:3 energy=-0.6390479016721993 pbc="F F F"
Sr       0.00000000       0.00000000       0.00000000       0.00000000       0.00000000       0.35174581
Sr       0.00000000       0.00000000       4.68888889       0.00000000       0.00000000      -0.35174581
2
Properties=species:S:1:pos:R:3:forces:R:3 energy=-0.617520932761024 pbc="F F F"
Sr       0.00000000       0.00000000       0.00000000       0.00000000       0.00000000       0.36969674
Sr       0.00000000       0.00000000       4.74848485       0.00000000       0.00000000      -0.36969674
2
Properties=species:S:1:pos:R:3:forces:R:3 energy=-0.595087630720931 pbc="F F F"
Sr       0.00000000       0.00000000       0.00000000       0.00000000       0.00000000       0.38230658
Sr       0.00000000       0.00000000       4.80808081       0.00000000       0.00000000      -0.38230658
2
Properties=species:S:1:pos:R:3:forces:R:3 energy=-0.5720410405788393 pbc="F F F"
Sr       0.00000000       0.00000000       0.00000000       0.00000000       0.00000000       0.39049700
Sr       0.00000000       0.00000000       4.86767677       0.00000000       0.00000000      -0.39049700
2
Properties=species:S:1:pos:R:3:forces:R:3 energy=-0.5486101819703356 pbc="F F F"
Sr       0.00000000       0.00000000       0.00000000       0.00000000       0.00000000       0.39529222
Sr       0.00000000       0.00000000       4.92727273       0.00000000       0.00000000      -0.39529222
2
Properties=species:S:1:pos:R:3:forces:R:3 energy=-0.5249768417940557 pbc="F F F"
Sr       0.00000000       0.00000000       0.00000000       0.00000000       0.00000000       0.39742103
Sr       0.00000000       0.00000000       4.98686869       0.00000000       0.00000000      -0.39742103
2
Properties=species:S:1:pos:R:3:forces:R:3 energy=-0.5012933415961882 pbc="F F F"
Sr       0.00000000       0.00000000       0.00000000       0.00000000       0.00000000       0.39706814
Sr       0.00000000       0.00000000       5.04646465       0.00000000       0.00000000      -0.39706814
2
Properties=species:S:1:pos:R:3:forces:R:3 energy=-0.47770794369312686 pbc="F F F"
Sr       0.00000000       0.00000000       0.00000000       0.00000000       0.00000000       0.39379120
Sr       0.00000000       0.00000000       5.10606061       0.00000000       0.00000000      -0.39379120
2
Properties=species:S:1:pos:R:3:forces:R:3 energy=-0.4544288764321279 pbc="F F F"
Sr       0.00000000       0.00000000       0.00000000       0.00000000       0.00000000       0.38660458
Sr       0.00000000       0.00000000       5.16565657       0.00000000       0.00000000      -0.38660458
2
Properties=species:S:1:pos:R:3:forces:R:3 energy=-0.43173054677009215 pbc="F F F"
Sr       0.00000000       0.00000000       0.00000000       0.00000000       0.00000000       0.37424424
Sr       0.00000000       0.00000000       5.22525253       0.00000000       0.00000000      -0.37424424
2
Properties=species:S:1:pos:R:3:forces:R:3 energy=-0.4099482487317787 pbc="F F F"
Sr       0.00000000       0.00000000       0.00000000       0.00000000       0.00000000       0.35559171
Sr       0.00000000       0.00000000       5.28484848       0.00000000       0.00000000      -0.35559171
2
Properties=species:S:1:pos:R:3:forces:R:3 energy=-0.38948559607966354 pbc="F F F"
Sr       0.00000000       0.00000000       0.00000000       0.00000000       0.00000000       0.33000663
Sr       0.00000000       0.00000000       5.34444444       0.00000000       0.00000000      -0.33000663
2
Properties=species:S:1:pos:R:3:forces:R:3 energy=-0.37074881682874405 pbc="F F F"
Sr       0.00000000       0.00000000       0.00000000       0.00000000       0.00000000       0.29769695
Sr       0.00000000       0.00000000       5.40404040       0.00000000       0.00000000      -0.29769695
2
Properties=species:S:1:pos:R:3:forces:R:3 energy=-0.35411009847796426 pbc="F F F"
Sr       0.00000000       0.00000000       0.00000000       0.00000000       0.00000000       0.25986692
Sr       0.00000000       0.00000000       5.46363636       0.00000000       0.00000000      -0.25986692
2
Properties=species:S:1:pos:R:3:forces:R:3 energy=-0.3398432703508202 pbc="F F F"
Sr       0.00000000       0.00000000       0.00000000       0.00000000       0.00000000       0.21864244
Sr       0.00000000       0.00000000       5.52323232       0.00000000       0.00000000      -0.21864244
2
Properties=species:S:1:pos:R:3:forces:R:3 energy=-0.3280649355491588 pbc="F F F"
Sr       0.00000000       0.00000000       0.00000000       0.00000000       0.00000000       0.17680630
Sr       0.00000000       0.00000000       5.58282828       0.00000000       0.00000000      -0.17680630
2
Properties=species:S:1:pos:R:3:forces:R:3 energy=-0.3187201595027876 pbc="F F F"
Sr       0.00000000       0.00000000       0.00000000       0.00000000       0.00000000       0.13739893
Sr       0.00000000       0.00000000       5.64242424       0.00000000       0.00000000      -0.13739893
2
Properties=species:S:1:pos:R:3:forces:R:3 energy=-0.3115836010418312 pbc="F F F"
Sr       0.00000000       0.00000000       0.00000000       0.00000000       0.00000000       0.10317767
Sr       0.00000000       0.00000000       5.70202020       0.00000000       0.00000000      -0.10317767
2
Properties=species:S:1:pos:R:3:forces:R:3 energy=-0.3062806452871556 pbc="F F F"
Sr       0.00000000       0.00000000       0.00000000       0.00000000       0.00000000       0.07618637
Sr       0.00000000       0.00000000       5.76161616       0.00000000       0.00000000      -0.07618637
2
Properties=species:S:1:pos:R:3:forces:R:3 energy=-0.30234144630418824 pbc="F F F"
Sr       0.00000000       0.00000000       0.00000000       0.00000000       0.00000000       0.05735217
Sr       0.00000000       0.00000000       5.82121212       0.00000000       0.00000000      -0.05735217
2
Properties=species:S:1:pos:R:3:forces:R:3 energy=-0.29929085759265384 pbc="F F F"
Sr       0.00000000       0.00000000       0.00000000       0.00000000       0.00000000       0.04634827
Sr       0.00000000       0.00000000       5.88080808       0.00000000       0.00000000      -0.04634827
2
Properties=species:S:1:pos:R:3:forces:R:3 energy=-0.29669310272398214 pbc="F F F"
Sr       0.00000000       0.00000000       0.00000000       0.00000000       0.00000000       0.04151110
Sr       0.00000000       0.00000000       5.94040404       0.00000000       0.00000000      -0.04151110
2
Properties=species:S:1:pos:R:3:forces:R:3 energy=-0.2942719889903295 pbc="F F F"
Sr       0.00000000       0.00000000       0.00000000       0.00000000       0.00000000       0.04012058
Sr       0.00000000       0.00000000       6.00000000       0.00000000       0.00000000      -0.04012058
