2
Properties=species:S:1:pos:R:3:forces:R:3 energy=-19135962.111394413 pbc="F F F"
Tb       0.00000000       0.00000000       0.00000000       0.00000000       0.00000000 106137392.00000000
Tb       0.00000000       0.00000000       0.10000000       0.00000000       0.00000000 -106137392.00000000
2
Properties=species:S:1:pos:R:3:forces:R:3 energy=-12401685.111394413 pbc="F F F"
Tb       0.00000000       0.00000000       0.00000000       0.00000000       0.00000000 112350360.00000000
Tb       0.00000000       0.00000000       0.15959596       0.00000000       0.00000000 -112350360.00000000
2
Properties=species:S:1:pos:R:3:forces:R:3 energy=-6407951.111394413 pbc="F F F"
Tb       0.00000000       0.00000000       0.00000000       0.00000000       0.00000000 84536536.00000000
Tb       0.00000000       0.00000000       0.21919192       0.00000000       0.00000000 -84536536.00000000
2
Properties=species:S:1:pos:R:3:forces:R:3 energy=-2515341.6113944133 pbc="F F F"
Tb       0.00000000       0.00000000       0.00000000       0.00000000       0.00000000 46422336.00000000
Tb       0.00000000       0.00000000       0.27878788       0.00000000       0.00000000 -46422336.00000000
2
Properties=species:S:1:pos:R:3:forces:R:3 energy=-670374.173894413 pbc="F F F"
Tb       0.00000000       0.00000000       0.00000000       0.00000000       0.00000000 17915920.00000000
Tb       0.00000000       0.00000000       0.33838384       0.00000000       0.00000000 -17915920.00000000
2
Properties=species:S:1:pos:R:3:forces:R:3 energy=-96872.03326941308 pbc="F F F"
Tb       0.00000000       0.00000000       0.00000000       0.00000000       0.00000000 3946732.25000000
Tb       0.00000000       0.00000000       0.39797980       0.00000000       0.00000000 -3946732.25000000
2
Properties=species:S:1:pos:R:3:forces:R:3 energy=-126.58942938622853 pbc="F F F"
Tb       0.00000000       0.00000000       0.00000000       0.00000000       0.00000000   -8850.90820312
Tb       0.00000000       0.00000000       0.45757576       0.00000000       0.00000000    8850.90820312
2
Properties=species:S:1:pos:R:3:forces:R:3 energy=-67.21664951469454 pbc="F F F"
Tb       0.00000000       0.00000000       0.00000000       0.00000000       0.00000000    1013.75537109
Tb       0.00000000       0.00000000       0.51717172       0.00000000       0.00000000   -1013.75537109
2
Properties=species:S:1:pos:R:3:forces:R:3 energy=66.67003110100408 pbc="F F F"
Tb       0.00000000       0.00000000       0.00000000       0.00000000       0.00000000    4733.29394531
Tb       0.00000000       0.00000000       0.57676768       0.00000000       0.00000000   -4733.29394531
2
Properties=species:S:1:pos:R:3:forces:R:3 energy=408.12114960825625 pbc="F F F"
Tb       0.00000000       0.00000000       0.00000000       0.00000000       0.00000000     818.55236816
Tb       0.00000000       0.00000000       0.63636364       0.00000000       0.00000000    -818.55236816
2
Properties=species:S:1:pos:R:3:forces:R:3 energy=398.87377417066017 pbc="F F F"
Tb       0.00000000       0.00000000       0.00000000       0.00000000       0.00000000    -616.27197266
Tb       0.00000000       0.00000000       0.69595960       0.00000000       0.00000000     616.27197266
2
Properties=species:S:1:pos:R:3:forces:R:3 energy=322.8531138462973 pbc="F F F"
Tb       0.00000000       0.00000000       0.00000000       0.00000000       0.00000000   -1495.63928223
Tb       0.00000000       0.00000000       0.75555556       0.00000000       0.00000000    1495.63928223
2
Properties=species:S:1:pos:R:3:forces:R:3 energy=313.61352046715075 pbc="F F F"
Tb       0.00000000       0.00000000       0.00000000       0.00000000       0.00000000     448.03982544
Tb       0.00000000       0.00000000       0.81515152       0.00000000       0.00000000    -448.03982544
2
Properties=species:S:1:pos:R:3:forces:R:3 energy=300.07747939745445 pbc="F F F"
Tb       0.00000000       0.00000000       0.00000000       0.00000000       0.00000000    -575.35046387
Tb       0.00000000       0.00000000       0.87474747       0.00000000       0.00000000     575.35046387
2
Properties=species:S:1:pos:R:3:forces:R:3 energy=252.72902995652026 pbc="F F F"
Tb       0.00000000       0.00000000       0.00000000       0.00000000       0.00000000   -1001.83837891
Tb       0.00000000       0.00000000       0.93434343       0.00000000       0.00000000    1001.83837891
2
Properties=species:S:1:pos:R:3:forces:R:3 energy=190.47292680836264 pbc="F F F"
Tb       0.00000000       0.00000000       0.00000000       0.00000000       0.00000000   -1044.48461914
Tb       0.00000000       0.00000000       0.99393939       0.00000000       0.00000000    1044.48461914
2
Properties=species:S:1:pos:R:3:forces:R:3 energy=137.86045475569193 pbc="F F F"
Tb       0.00000000       0.00000000       0.00000000       0.00000000       0.00000000    -703.01959229
Tb       0.00000000       0.00000000       1.05353535       0.00000000       0.00000000     703.01959229
2
Properties=species:S:1:pos:R:3:forces:R:3 energy=100.2077912426999 pbc="F F F"
Tb       0.00000000       0.00000000       0.00000000       0.00000000       0.00000000    -545.52117920
Tb       0.00000000       0.00000000       1.11313131       0.00000000       0.00000000     545.52117920
2
Properties=species:S:1:pos:R:3:forces:R:3 energy=73.66197759018738 pbc="F F F"
Tb       0.00000000       0.00000000       0.00000000       0.00000000       0.00000000    -351.59298706
Tb       0.00000000       0.00000000       1.17272727       0.00000000       0.00000000     351.59298706
2
Properties=species:S:1:pos:R:3:forces:R:3 energy=56.9975805119014 pbc="F F F"
Tb       0.00000000       0.00000000       0.00000000       0.00000000       0.00000000    -223.51396179
Tb       0.00000000       0.00000000       1.23232323       0.00000000       0.00000000     223.51396179
2
Properties=species:S:1:pos:R:3:forces:R:3 energy=45.71782731775642 pbc="F F F"
Tb       0.00000000       0.00000000       0.00000000       0.00000000       0.00000000    -163.38142395
Tb       0.00000000       0.00000000       1.29191919       0.00000000       0.00000000     163.38142395
2
Properties=species:S:1:pos:R:3:forces:R:3 energy=37.196424876064555 pbc="F F F"
Tb       0.00000000       0.00000000       0.00000000       0.00000000       0.00000000    -125.82992554
Tb       0.00000000       0.00000000       1.35151515       0.00000000       0.00000000     125.82992554
2
Properties=species:S:1:pos:R:3:forces:R:3 energy=30.147019223254702 pbc="F F F"
Tb       0.00000000       0.00000000       0.00000000       0.00000000       0.00000000    -111.52645874
Tb       0.00000000       0.00000000       1.41111111       0.00000000       0.00000000     111.52645874
2
Properties=species:S:1:pos:R:3:forces:R:3 energy=24.140247197293462 pbc="F F F"
Tb       0.00000000       0.00000000       0.00000000       0.00000000       0.00000000     -87.74814606
Tb       0.00000000       0.00000000       1.47070707       0.00000000       0.00000000      87.74814606
2
Properties=species:S:1:pos:R:3:forces:R:3 energy=19.729301050894307 pbc="F F F"
Tb       0.00000000       0.00000000       0.00000000       0.00000000       0.00000000     -62.65742874
Tb       0.00000000       0.00000000       1.53030303       0.00000000       0.00000000      62.65742874
2
Properties=species:S:1:pos:R:3:forces:R:3 energy=16.42965328486563 pbc="F F F"
Tb       0.00000000       0.00000000       0.00000000       0.00000000       0.00000000     -49.79980850
Tb       0.00000000       0.00000000       1.58989899       0.00000000       0.00000000      49.79980850
2
Properties=species:S:1:pos:R:3:forces:R:3 energy=13.713240315167875 pbc="F F F"
Tb       0.00000000       0.00000000       0.00000000       0.00000000       0.00000000     -40.61771393
Tb       0.00000000       0.00000000       1.64949495       0.00000000       0.00000000      40.61771393
2
Properties=species:S:1:pos:R:3:forces:R:3 energy=11.472331428377988 pbc="F F F"
Tb       0.00000000       0.00000000       0.00000000       0.00000000       0.00000000     -35.54179001
Tb       0.00000000       0.00000000       1.70909091       0.00000000       0.00000000      35.54179001
2
Properties=species:S:1:pos:R:3:forces:R:3 energy=9.52687595197946 pbc="F F F"
Tb       0.00000000       0.00000000       0.00000000       0.00000000       0.00000000     -29.61986732
Tb       0.00000000       0.00000000       1.76868687       0.00000000       0.00000000      29.61986732
2
Properties=species:S:1:pos:R:3:forces:R:3 energy=7.9032775411795075 pbc="F F F"
Tb       0.00000000       0.00000000       0.00000000       0.00000000       0.00000000     -24.85037231
Tb       0.00000000       0.00000000       1.82828283       0.00000000       0.00000000      24.85037231
2
Properties=species:S:1:pos:R:3:forces:R:3 energy=6.530422824964257 pbc="F F F"
Tb       0.00000000       0.00000000       0.00000000       0.00000000       0.00000000     -21.52501869
Tb       0.00000000       0.00000000       1.88787879       0.00000000       0.00000000      21.52501869
2
Properties=species:S:1:pos:R:3:forces:R:3 energy=5.307350396921392 pbc="F F F"
Tb       0.00000000       0.00000000       0.00000000       0.00000000       0.00000000     -19.62105942
Tb       0.00000000       0.00000000       1.94747475       0.00000000       0.00000000      19.62105942
2
Properties=species:S:1:pos:R:3:forces:R:3 energy=4.193678175907934 pbc="F F F"
Tb       0.00000000       0.00000000       0.00000000       0.00000000       0.00000000     -17.68280411
Tb       0.00000000       0.00000000       2.00707071       0.00000000       0.00000000      17.68280411
2
Properties=species:S:1:pos:R:3:forces:R:3 energy=3.198756289032854 pbc="F F F"
Tb       0.00000000       0.00000000       0.00000000       0.00000000       0.00000000     -15.70823097
Tb       0.00000000       0.00000000       2.06666667       0.00000000       0.00000000      15.70823097
2
Properties=species:S:1:pos:R:3:forces:R:3 energy=2.3339453102344194 pbc="F F F"
Tb       0.00000000       0.00000000       0.00000000       0.00000000       0.00000000     -13.22645473
Tb       0.00000000       0.00000000       2.12626263       0.00000000       0.00000000      13.22645473
2
Properties=species:S:1:pos:R:3:forces:R:3 energy=1.6120992547591004 pbc="F F F"
Tb       0.00000000       0.00000000       0.00000000       0.00000000       0.00000000     -11.17217827
Tb       0.00000000       0.00000000       2.18585859       0.00000000       0.00000000      11.17217827
2
Properties=species:S:1:pos:R:3:forces:R:3 energy=0.9934637112195747 pbc="F F F"
Tb       0.00000000       0.00000000       0.00000000       0.00000000       0.00000000      -9.59929466
Tb       0.00000000       0.00000000       2.24545455       0.00000000       0.00000000       9.59929466
2
Properties=species:S:1:pos:R:3:forces:R:3 energy=0.4642385781059598 pbc="F F F"
Tb       0.00000000       0.00000000       0.00000000       0.00000000       0.00000000      -8.18647289
Tb       0.00000000       0.00000000       2.30505051       0.00000000       0.00000000       8.18647289
2
Properties=species:S:1:pos:R:3:forces:R:3 energy=0.015140355470873293 pbc="F F F"
Tb       0.00000000       0.00000000       0.00000000       0.00000000       0.00000000      -6.93002462
Tb       0.00000000       0.00000000       2.36464646       0.00000000       0.00000000       6.93002462
2
Properties=species:S:1:pos:R:3:forces:R:3 energy=-0.3681478356334624 pbc="F F F"
Tb       0.00000000       0.00000000       0.00000000       0.00000000       0.00000000      -5.96790648
Tb       0.00000000       0.00000000       2.42424242       0.00000000       0.00000000       5.96790648
2
Properties=species:S:1:pos:R:3:forces:R:3 energy=-0.6984513021813881 pbc="F F F"
Tb       0.00000000       0.00000000       0.00000000       0.00000000       0.00000000      -5.12727928
Tb       0.00000000       0.00000000       2.48383838       0.00000000       0.00000000       5.12727928
2
Properties=species:S:1:pos:R:3:forces:R:3 energy=-0.979919712534454 pbc="F F F"
Tb       0.00000000       0.00000000       0.00000000       0.00000000       0.00000000      -4.33172703
Tb       0.00000000       0.00000000       2.54343434       0.00000000       0.00000000       4.33172703
2
Properties=species:S:1:pos:R:3:forces:R:3 energy=-1.218613822356557 pbc="F F F"
Tb       0.00000000       0.00000000       0.00000000       0.00000000       0.00000000      -3.72049093
Tb       0.00000000       0.00000000       2.60303030       0.00000000       0.00000000       3.72049093
2
Properties=species:S:1:pos:R:3:forces:R:3 energy=-1.4272271288257565 pbc="F F F"
Tb       0.00000000       0.00000000       0.00000000       0.00000000       0.00000000      -3.29745889
Tb       0.00000000       0.00000000       2.66262626       0.00000000       0.00000000       3.29745889
2
Properties=species:S:1:pos:R:3:forces:R:3 energy=-1.612009063065135 pbc="F F F"
Tb       0.00000000       0.00000000       0.00000000       0.00000000       0.00000000      -2.89748025
Tb       0.00000000       0.00000000       2.72222222       0.00000000       0.00000000       2.89748025
2
Properties=species:S:1:pos:R:3:forces:R:3 energy=-1.7717036266563682 pbc="F F F"
Tb       0.00000000       0.00000000       0.00000000       0.00000000       0.00000000      -2.45727324
Tb       0.00000000       0.00000000       2.78181818       0.00000000       0.00000000       2.45727324
2
Properties=species:S:1:pos:R:3:forces:R:3 energy=-1.9049926042673717 pbc="F F F"
Tb       0.00000000       0.00000000       0.00000000       0.00000000       0.00000000      -2.02145720
Tb       0.00000000       0.00000000       2.84141414       0.00000000       0.00000000       2.02145720
2
Properties=species:S:1:pos:R:3:forces:R:3 energy=-2.013666860207854 pbc="F F F"
Tb       0.00000000       0.00000000       0.00000000       0.00000000       0.00000000      -1.63584101
Tb       0.00000000       0.00000000       2.90101010       0.00000000       0.00000000       1.63584101
2
Properties=species:S:1:pos:R:3:forces:R:3 energy=-2.101192636478255 pbc="F F F"
Tb       0.00000000       0.00000000       0.00000000       0.00000000       0.00000000      -1.31063139
Tb       0.00000000       0.00000000       2.96060606       0.00000000       0.00000000       1.31063139
2
Properties=species:S:1:pos:R:3:forces:R:3 energy=-2.1707643398849723 pbc="F F F"
Tb       0.00000000       0.00000000       0.00000000       0.00000000       0.00000000      -1.02989984
Tb       0.00000000       0.00000000       3.02020202       0.00000000       0.00000000       1.02989984
2
Properties=species:S:1:pos:R:3:forces:R:3 energy=-2.2245511139878245 pbc="F F F"
Tb       0.00000000       0.00000000       0.00000000       0.00000000       0.00000000      -0.78029460
Tb       0.00000000       0.00000000       3.07979798       0.00000000       0.00000000       0.78029460
2
Properties=species:S:1:pos:R:3:forces:R:3 energy=-2.264467255892243 pbc="F F F"
Tb       0.00000000       0.00000000       0.00000000       0.00000000       0.00000000      -0.56581974
Tb       0.00000000       0.00000000       3.13939394       0.00000000       0.00000000       0.56581974
2
Properties=species:S:1:pos:R:3:forces:R:3 energy=-2.292818119858541 pbc="F F F"
Tb       0.00000000       0.00000000       0.00000000       0.00000000       0.00000000      -0.39257389
Tb       0.00000000       0.00000000       3.19898990       0.00000000       0.00000000       0.39257389
2
Properties=species:S:1:pos:R:3:forces:R:3 energy=-2.3120032584924495 pbc="F F F"
Tb       0.00000000       0.00000000       0.00000000       0.00000000       0.00000000      -0.25656092
Tb       0.00000000       0.00000000       3.25858586       0.00000000       0.00000000       0.25656092
2
Properties=species:S:1:pos:R:3:forces:R:3 energy=-2.3239138146187455 pbc="F F F"
Tb       0.00000000       0.00000000       0.00000000       0.00000000       0.00000000      -0.14653215
Tb       0.00000000       0.00000000       3.31818182       0.00000000       0.00000000       0.14653215
2
Properties=species:S:1:pos:R:3:forces:R:3 energy=-2.3297885418020536 pbc="F F F"
Tb       0.00000000       0.00000000       0.00000000       0.00000000       0.00000000      -0.05296120
Tb       0.00000000       0.00000000       3.37777778       0.00000000       0.00000000       0.05296120
2
Properties=species:S:1:pos:R:3:forces:R:3 energy=-2.3304673803447 pbc="F F F"
Tb       0.00000000       0.00000000       0.00000000       0.00000000       0.00000000       0.02852233
Tb       0.00000000       0.00000000       3.43737374       0.00000000       0.00000000      -0.02852233
2
Properties=species:S:1:pos:R:3:forces:R:3 energy=-2.326563283390417 pbc="F F F"
Tb       0.00000000       0.00000000       0.00000000       0.00000000       0.00000000       0.10130261
Tb       0.00000000       0.00000000       3.49696970       0.00000000       0.00000000      -0.10130261
2
Properties=species:S:1:pos:R:3:forces:R:3 energy=-2.318484012049448 pbc="F F F"
Tb       0.00000000       0.00000000       0.00000000       0.00000000       0.00000000       0.16934144
Tb       0.00000000       0.00000000       3.55656566       0.00000000       0.00000000      -0.16934144
2
Properties=species:S:1:pos:R:3:forces:R:3 energy=-2.30643226211143 pbc="F F F"
Tb       0.00000000       0.00000000       0.00000000       0.00000000       0.00000000       0.23466779
Tb       0.00000000       0.00000000       3.61616162       0.00000000       0.00000000      -0.23466779
2
Properties=species:S:1:pos:R:3:forces:R:3 energy=-2.290581152790904 pbc="F F F"
Tb       0.00000000       0.00000000       0.00000000       0.00000000       0.00000000       0.29653263
Tb       0.00000000       0.00000000       3.67575758       0.00000000       0.00000000      -0.29653263
2
Properties=species:S:1:pos:R:3:forces:R:3 energy=-2.271192317615796 pbc="F F F"
Tb       0.00000000       0.00000000       0.00000000       0.00000000       0.00000000       0.35312805
Tb       0.00000000       0.00000000       3.73535354       0.00000000       0.00000000      -0.35312805
2
Properties=species:S:1:pos:R:3:forces:R:3 energy=-2.248621835549578 pbc="F F F"
Tb       0.00000000       0.00000000       0.00000000       0.00000000       0.00000000       0.40319559
Tb       0.00000000       0.00000000       3.79494949       0.00000000       0.00000000      -0.40319559
2
Properties=species:S:1:pos:R:3:forces:R:3 energy=-2.2232724522407827 pbc="F F F"
Tb       0.00000000       0.00000000       0.00000000       0.00000000       0.00000000       0.44635010
Tb       0.00000000       0.00000000       3.85454545       0.00000000       0.00000000      -0.44635010
2
Properties=species:S:1:pos:R:3:forces:R:3 energy=-2.19555642473853 pbc="F F F"
Tb       0.00000000       0.00000000       0.00000000       0.00000000       0.00000000       0.48268598
Tb       0.00000000       0.00000000       3.91414141       0.00000000       0.00000000      -0.48268598
2
Properties=species:S:1:pos:R:3:forces:R:3 energy=-2.165869759614695 pbc="F F F"
Tb       0.00000000       0.00000000       0.00000000       0.00000000       0.00000000       0.51246506
Tb       0.00000000       0.00000000       3.97373737       0.00000000       0.00000000      -0.51246506
2
Properties=species:S:1:pos:R:3:forces:R:3 energy=-2.134598068058336 pbc="F F F"
Tb       0.00000000       0.00000000       0.00000000       0.00000000       0.00000000       0.53613001
Tb       0.00000000       0.00000000       4.03333333       0.00000000       0.00000000      -0.53613001
2
Properties=species:S:1:pos:R:3:forces:R:3 energy=-2.1020735238185724 pbc="F F F"
Tb       0.00000000       0.00000000       0.00000000       0.00000000       0.00000000       0.55434787
Tb       0.00000000       0.00000000       4.09292929       0.00000000       0.00000000      -0.55434787
2
Properties=species:S:1:pos:R:3:forces:R:3 energy=-2.068615101259556 pbc="F F F"
Tb       0.00000000       0.00000000       0.00000000       0.00000000       0.00000000       0.56787825
Tb       0.00000000       0.00000000       4.15252525       0.00000000       0.00000000      -0.56787825
2
Properties=species:S:1:pos:R:3:forces:R:3 energy=-2.034472264226295 pbc="F F F"
Tb       0.00000000       0.00000000       0.00000000       0.00000000       0.00000000       0.57729214
Tb       0.00000000       0.00000000       4.21212121       0.00000000       0.00000000      -0.57729214
2
Properties=species:S:1:pos:R:3:forces:R:3 energy=-1.9998831465135969 pbc="F F F"
Tb       0.00000000       0.00000000       0.00000000       0.00000000       0.00000000       0.58278352
Tb       0.00000000       0.00000000       4.27171717       0.00000000       0.00000000      -0.58278352
2
Properties=species:S:1:pos:R:3:forces:R:3 energy=-1.9650880490263185 pbc="F F F"
Tb       0.00000000       0.00000000       0.00000000       0.00000000       0.00000000       0.58422804
Tb       0.00000000       0.00000000       4.33131313       0.00000000       0.00000000      -0.58422804
2
Properties=species:S:1:pos:R:3:forces:R:3 energy=-1.930334125787572 pbc="F F F"
Tb       0.00000000       0.00000000       0.00000000       0.00000000       0.00000000       0.58139485
Tb       0.00000000       0.00000000       4.39090909       0.00000000       0.00000000      -0.58139485
2
Properties=species:S:1:pos:R:3:forces:R:3 energy=-1.8958774496784647 pbc="F F F"
Tb       0.00000000       0.00000000       0.00000000       0.00000000       0.00000000       0.57417637
Tb       0.00000000       0.00000000       4.45050505       0.00000000       0.00000000      -0.57417637
2
Properties=species:S:1:pos:R:3:forces:R:3 energy=-1.8619829807598782 pbc="F F F"
Tb       0.00000000       0.00000000       0.00000000       0.00000000       0.00000000       0.56269646
Tb       0.00000000       0.00000000       4.51010101       0.00000000       0.00000000      -0.56269646
2
Properties=species:S:1:pos:R:3:forces:R:3 energy=-1.8288854973037163 pbc="F F F"
Tb       0.00000000       0.00000000       0.00000000       0.00000000       0.00000000       0.54732531
Tb       0.00000000       0.00000000       4.56969697       0.00000000       0.00000000      -0.54732531
2
Properties=species:S:1:pos:R:3:forces:R:3 energy=-1.7968125916824522 pbc="F F F"
Tb       0.00000000       0.00000000       0.00000000       0.00000000       0.00000000       0.52862781
Tb       0.00000000       0.00000000       4.62929293       0.00000000       0.00000000      -0.52862781
2
Properties=species:S:1:pos:R:3:forces:R:3 energy=-1.7659293826013545 pbc="F F F"
Tb       0.00000000       0.00000000       0.00000000       0.00000000       0.00000000       0.50736487
Tb       0.00000000       0.00000000       4.68888889       0.00000000       0.00000000      -0.50736487
2
Properties=species:S:1:pos:R:3:forces:R:3 energy=-1.7363709526965334 pbc="F F F"
Tb       0.00000000       0.00000000       0.00000000       0.00000000       0.00000000       0.48445296
Tb       0.00000000       0.00000000       4.74848485       0.00000000       0.00000000      -0.48445296
2
Properties=species:S:1:pos:R:3:forces:R:3 energy=-1.708197481492559 pbc="F F F"
Tb       0.00000000       0.00000000       0.00000000       0.00000000       0.00000000       0.46095717
Tb       0.00000000       0.00000000       4.80808081       0.00000000       0.00000000      -0.46095717
2
Properties=species:S:1:pos:R:3:forces:R:3 energy=-1.6814144689680794 pbc="F F F"
Tb       0.00000000       0.00000000       0.00000000       0.00000000       0.00000000       0.43795824
Tb       0.00000000       0.00000000       4.86767677       0.00000000       0.00000000      -0.43795824
2
Properties=species:S:1:pos:R:3:forces:R:3 energy=-1.6559659774722308 pbc="F F F"
Tb       0.00000000       0.00000000       0.00000000       0.00000000       0.00000000       0.41638994
Tb       0.00000000       0.00000000       4.92727273       0.00000000       0.00000000      -0.41638994
2
Properties=species:S:1:pos:R:3:forces:R:3 energy=-1.6317450777926064 pbc="F F F"
Tb       0.00000000       0.00000000       0.00000000       0.00000000       0.00000000       0.39679891
Tb       0.00000000       0.00000000       4.98686869       0.00000000       0.00000000      -0.39679891
2
Properties=species:S:1:pos:R:3:forces:R:3 energy=-1.608632110169511 pbc="F F F"
Tb       0.00000000       0.00000000       0.00000000       0.00000000       0.00000000       0.37915766
Tb       0.00000000       0.00000000       5.04646465       0.00000000       0.00000000      -0.37915766
2
Properties=species:S:1:pos:R:3:forces:R:3 energy=-1.5865307591932318 pbc="F F F"
Tb       0.00000000       0.00000000       0.00000000       0.00000000       0.00000000       0.36279833
Tb       0.00000000       0.00000000       5.10606061       0.00000000       0.00000000      -0.36279833
2
Properties=species:S:1:pos:R:3:forces:R:3 energy=-1.565387285681476 pbc="F F F"
Tb       0.00000000       0.00000000       0.00000000       0.00000000       0.00000000       0.34648043
Tb       0.00000000       0.00000000       5.16565657       0.00000000       0.00000000      -0.34648043
2
Properties=species:S:1:pos:R:3:forces:R:3 energy=-1.545257100147832 pbc="F F F"
Tb       0.00000000       0.00000000       0.00000000       0.00000000       0.00000000       0.32868373
Tb       0.00000000       0.00000000       5.22525253       0.00000000       0.00000000      -0.32868373
2
Properties=species:S:1:pos:R:3:forces:R:3 energy=-1.526274232552357 pbc="F F F"
Tb       0.00000000       0.00000000       0.00000000       0.00000000       0.00000000       0.30791661
Tb       0.00000000       0.00000000       5.28484848       0.00000000       0.00000000      -0.30791661
2
Properties=species:S:1:pos:R:3:forces:R:3 energy=-1.5086389091928878 pbc="F F F"
Tb       0.00000000       0.00000000       0.00000000       0.00000000       0.00000000       0.28313011
Tb       0.00000000       0.00000000       5.34444444       0.00000000       0.00000000      -0.28313011
2
Properties=species:S:1:pos:R:3:forces:R:3 energy=-1.4926155566573853 pbc="F F F"
Tb       0.00000000       0.00000000       0.00000000       0.00000000       0.00000000       0.25399354
Tb       0.00000000       0.00000000       5.40404040       0.00000000       0.00000000      -0.25399354
2
Properties=species:S:1:pos:R:3:forces:R:3 energy=-1.478438293031948 pbc="F F F"
Tb       0.00000000       0.00000000       0.00000000       0.00000000       0.00000000       0.22107401
Tb       0.00000000       0.00000000       5.46363636       0.00000000       0.00000000      -0.22107401
2
Properties=species:S:1:pos:R:3:forces:R:3 energy=-1.4663099298769842 pbc="F F F"
Tb       0.00000000       0.00000000       0.00000000       0.00000000       0.00000000       0.18577543
Tb       0.00000000       0.00000000       5.52323232       0.00000000       0.00000000      -0.18577543
2
Properties=species:S:1:pos:R:3:forces:R:3 energy=-1.4563084487877618 pbc="F F F"
Tb       0.00000000       0.00000000       0.00000000       0.00000000       0.00000000       0.15014005
Tb       0.00000000       0.00000000       5.58282828       0.00000000       0.00000000      -0.15014005
2
Properties=species:S:1:pos:R:3:forces:R:3 energy=-1.448374407223322 pbc="F F F"
Tb       0.00000000       0.00000000       0.00000000       0.00000000       0.00000000       0.11655875
Tb       0.00000000       0.00000000       5.64242424       0.00000000       0.00000000      -0.11655875
2
Properties=species:S:1:pos:R:3:forces:R:3 energy=-1.4423262669876287 pbc="F F F"
Tb       0.00000000       0.00000000       0.00000000       0.00000000       0.00000000       0.08727676
Tb       0.00000000       0.00000000       5.70202020       0.00000000       0.00000000      -0.08727676
2
Properties=species:S:1:pos:R:3:forces:R:3 energy=-1.4378507181022298 pbc="F F F"
Tb       0.00000000       0.00000000       0.00000000       0.00000000       0.00000000       0.06406379
Tb       0.00000000       0.00000000       5.76161616       0.00000000       0.00000000      -0.06406379
2
Properties=species:S:1:pos:R:3:forces:R:3 energy=-1.4345521241508923 pbc="F F F"
Tb       0.00000000       0.00000000       0.00000000       0.00000000       0.00000000       0.04778367
Tb       0.00000000       0.00000000       5.82121212       0.00000000       0.00000000      -0.04778367
2
Properties=species:S:1:pos:R:3:forces:R:3 energy=-1.432023170206747 pbc="F F F"
Tb       0.00000000       0.00000000       0.00000000       0.00000000       0.00000000       0.03825887
Tb       0.00000000       0.00000000       5.88080808       0.00000000       0.00000000      -0.03825887
2
Properties=species:S:1:pos:R:3:forces:R:3 energy=-1.429889520798408 pbc="F F F"
Tb       0.00000000       0.00000000       0.00000000       0.00000000       0.00000000       0.03410820
Tb       0.00000000       0.00000000       5.94040404       0.00000000       0.00000000      -0.03410820
2
Properties=species:S:1:pos:R:3:forces:R:3 energy=-1.427895669605383 pbc="F F F"
Tb       0.00000000       0.00000000       0.00000000       0.00000000       0.00000000       0.03298599
Tb       0.00000000       0.00000000       6.00000000       0.00000000       0.00000000      -0.03298599
