2
Properties=species:S:1:pos:R:3:forces:R:3 energy=70258991103.95746 pbc="F F F"
W        0.00000000       0.00000000       0.00000000       0.00000000       0.00000000 -418332540928.00000000
W        0.00000000       0.00000000       0.10000000       0.00000000       0.00000000 418332540928.00000000
2
Properties=species:S:1:pos:R:3:forces:R:3 energy=43882684415.95745 pbc="F F F"
W        0.00000000       0.00000000       0.00000000       0.00000000       0.00000000 -435713507328.00000000
W        0.00000000       0.00000000       0.15959596       0.00000000       0.00000000 435713507328.00000000
2
Properties=species:S:1:pos:R:3:forces:R:3 energy=21190029311.957455 pbc="F F F"
W        0.00000000       0.00000000       0.00000000       0.00000000       0.00000000 -311013769216.00000000
W        0.00000000       0.00000000       0.21919192       0.00000000       0.00000000 311013769216.00000000
2
Properties=species:S:1:pos:R:3:forces:R:3 energy=7420765695.957454 pbc="F F F"
W        0.00000000       0.00000000       0.00000000       0.00000000       0.00000000 -154611859456.00000000
W        0.00000000       0.00000000       0.27878788       0.00000000       0.00000000 154611859456.00000000
2
Properties=species:S:1:pos:R:3:forces:R:3 energy=1690991999.9574533 pbc="F F F"
W        0.00000000       0.00000000       0.00000000       0.00000000       0.00000000 -49256271872.00000000
W        0.00000000       0.00000000       0.33838384       0.00000000       0.00000000 49256271872.00000000
2
Properties=species:S:1:pos:R:3:forces:R:3 energy=238078399.95745337 pbc="F F F"
W        0.00000000       0.00000000       0.00000000       0.00000000       0.00000000 -8960823296.00000000
W        0.00000000       0.00000000       0.39797980       0.00000000       0.00000000 8960823296.00000000
2
Properties=species:S:1:pos:R:3:forces:R:3 energy=17605583.957453366 pbc="F F F"
W        0.00000000       0.00000000       0.00000000       0.00000000       0.00000000 -834641600.00000000
W        0.00000000       0.00000000       0.45757576       0.00000000       0.00000000 834641600.00000000
2
Properties=species:S:1:pos:R:3:forces:R:3 energy=999086.2699533767 pbc="F F F"
W        0.00000000       0.00000000       0.00000000       0.00000000       0.00000000 -50599408.00000000
W        0.00000000       0.00000000       0.51717172       0.00000000       0.00000000 50599408.00000000
2
Properties=species:S:1:pos:R:3:forces:R:3 energy=69598.62151589255 pbc="F F F"
W        0.00000000       0.00000000       0.00000000       0.00000000       0.00000000 -2379953.25000000
W        0.00000000       0.00000000       0.57676768       0.00000000       0.00000000 2379953.25000000
2
Properties=species:S:1:pos:R:3:forces:R:3 energy=16163.90276591789 pbc="F F F"
W        0.00000000       0.00000000       0.00000000       0.00000000       0.00000000 -287749.18750000
W        0.00000000       0.00000000       0.63636364       0.00000000       0.00000000  287749.18750000
2
Properties=species:S:1:pos:R:3:forces:R:3 energy=7144.78801986849 pbc="F F F"
W        0.00000000       0.00000000       0.00000000       0.00000000       0.00000000  -73461.60937500
W        0.00000000       0.00000000       0.69595960       0.00000000       0.00000000   73461.60937500
2
Properties=species:S:1:pos:R:3:forces:R:3 energy=3735.548273844432 pbc="F F F"
W        0.00000000       0.00000000       0.00000000       0.00000000       0.00000000  -40340.70312500
W        0.00000000       0.00000000       0.75555556       0.00000000       0.00000000   40340.70312500
2
Properties=species:S:1:pos:R:3:forces:R:3 energy=1814.6503247270523 pbc="F F F"
W        0.00000000       0.00000000       0.00000000       0.00000000       0.00000000  -22409.24023438
W        0.00000000       0.00000000       0.81515152       0.00000000       0.00000000   22409.24023438
2
Properties=species:S:1:pos:R:3:forces:R:3 energy=787.900813154022 pbc="F F F"
W        0.00000000       0.00000000       0.00000000       0.00000000       0.00000000  -12439.73046875
W        0.00000000       0.00000000       0.87474747       0.00000000       0.00000000   12439.73046875
2
Properties=species:S:1:pos:R:3:forces:R:3 energy=265.03383948614515 pbc="F F F"
W        0.00000000       0.00000000       0.00000000       0.00000000       0.00000000   -5755.72509766
W        0.00000000       0.00000000       0.93434343       0.00000000       0.00000000    5755.72509766
2
Properties=species:S:1:pos:R:3:forces:R:3 energy=52.10543400953041 pbc="F F F"
W        0.00000000       0.00000000       0.00000000       0.00000000       0.00000000   -1962.68908691
W        0.00000000       0.00000000       0.99393939       0.00000000       0.00000000    1962.68908691
2
Properties=species:S:1:pos:R:3:forces:R:3 energy=-5.576819441580734 pbc="F F F"
W        0.00000000       0.00000000       0.00000000       0.00000000       0.00000000     170.36526489
W        0.00000000       0.00000000       1.05353535       0.00000000       0.00000000    -170.36526489
2
Properties=species:S:1:pos:R:3:forces:R:3 energy=2.475969812378133 pbc="F F F"
W        0.00000000       0.00000000       0.00000000       0.00000000       0.00000000      94.15096283
W        0.00000000       0.00000000       1.11313131       0.00000000       0.00000000     -94.15096283
2
Properties=species:S:1:pos:R:3:forces:R:3 energy=5.965262641403108 pbc="F F F"
W        0.00000000       0.00000000       0.00000000       0.00000000       0.00000000      27.86956978
W        0.00000000       0.00000000       1.17272727       0.00000000       0.00000000     -27.86956978
2
Properties=species:S:1:pos:R:3:forces:R:3 energy=7.324979943798582 pbc="F F F"
W        0.00000000       0.00000000       0.00000000       0.00000000       0.00000000      16.13308144
W        0.00000000       0.00000000       1.23232323       0.00000000       0.00000000     -16.13308144
2
Properties=species:S:1:pos:R:3:forces:R:3 energy=7.263028496439995 pbc="F F F"
W        0.00000000       0.00000000       0.00000000       0.00000000       0.00000000     -14.93471432
W        0.00000000       0.00000000       1.29191919       0.00000000       0.00000000      14.93471432
2
Properties=species:S:1:pos:R:3:forces:R:3 energy=6.292731177044873 pbc="F F F"
W        0.00000000       0.00000000       0.00000000       0.00000000       0.00000000     -15.51875305
W        0.00000000       0.00000000       1.35151515       0.00000000       0.00000000      15.51875305
2
Properties=species:S:1:pos:R:3:forces:R:3 energy=5.286312866212383 pbc="F F F"
W        0.00000000       0.00000000       0.00000000       0.00000000       0.00000000     -20.38620377
W        0.00000000       0.00000000       1.41111111       0.00000000       0.00000000      20.38620377
2
Properties=species:S:1:pos:R:3:forces:R:3 energy=3.759242234214545 pbc="F F F"
W        0.00000000       0.00000000       0.00000000       0.00000000       0.00000000     -31.41827011
W        0.00000000       0.00000000       1.47070707       0.00000000       0.00000000      31.41827011
2
Properties=species:S:1:pos:R:3:forces:R:3 energy=1.534004336675329 pbc="F F F"
W        0.00000000       0.00000000       0.00000000       0.00000000       0.00000000     -41.84721375
W        0.00000000       0.00000000       1.53030303       0.00000000       0.00000000      41.84721375
2
Properties=species:S:1:pos:R:3:forces:R:3 energy=-1.035976649601508 pbc="F F F"
W        0.00000000       0.00000000       0.00000000       0.00000000       0.00000000     -43.60341644
W        0.00000000       0.00000000       1.58989899       0.00000000       0.00000000      43.60341644
2
Properties=species:S:1:pos:R:3:forces:R:3 energy=-3.612542966269242 pbc="F F F"
W        0.00000000       0.00000000       0.00000000       0.00000000       0.00000000     -41.87065125
W        0.00000000       0.00000000       1.64949495       0.00000000       0.00000000      41.87065125
2
Properties=species:S:1:pos:R:3:forces:R:3 energy=-5.981374294311228 pbc="F F F"
W        0.00000000       0.00000000       0.00000000       0.00000000       0.00000000     -37.34600067
W        0.00000000       0.00000000       1.70909091       0.00000000       0.00000000      37.34600067
2
Properties=species:S:1:pos:R:3:forces:R:3 energy=-8.002086811959206 pbc="F F F"
W        0.00000000       0.00000000       0.00000000       0.00000000       0.00000000     -30.43339539
W        0.00000000       0.00000000       1.76868687       0.00000000       0.00000000      30.43339539
2
Properties=species:S:1:pos:R:3:forces:R:3 energy=-9.670824649225196 pbc="F F F"
W        0.00000000       0.00000000       0.00000000       0.00000000       0.00000000     -25.67852592
W        0.00000000       0.00000000       1.82828283       0.00000000       0.00000000      25.67852592
2
Properties=species:S:1:pos:R:3:forces:R:3 energy=-11.01619128385344 pbc="F F F"
W        0.00000000       0.00000000       0.00000000       0.00000000       0.00000000     -19.82000923
W        0.00000000       0.00000000       1.88787879       0.00000000       0.00000000      19.82000923
2
Properties=species:S:1:pos:R:3:forces:R:3 energy=-12.047431615660244 pbc="F F F"
W        0.00000000       0.00000000       0.00000000       0.00000000       0.00000000     -14.58515453
W        0.00000000       0.00000000       1.94747475       0.00000000       0.00000000      14.58515453
2
Properties=species:S:1:pos:R:3:forces:R:3 energy=-12.75695071227046 pbc="F F F"
W        0.00000000       0.00000000       0.00000000       0.00000000       0.00000000      -9.44594383
W        0.00000000       0.00000000       2.00707071       0.00000000       0.00000000       9.44594383
2
Properties=species:S:1:pos:R:3:forces:R:3 energy=-13.198881447048814 pbc="F F F"
W        0.00000000       0.00000000       0.00000000       0.00000000       0.00000000      -5.48797464
W        0.00000000       0.00000000       2.06666667       0.00000000       0.00000000       5.48797464
2
Properties=species:S:1:pos:R:3:forces:R:3 energy=-13.416668456487171 pbc="F F F"
W        0.00000000       0.00000000       0.00000000       0.00000000       0.00000000      -1.90869617
W        0.00000000       0.00000000       2.12626263       0.00000000       0.00000000       1.90869617
2
Properties=species:S:1:pos:R:3:forces:R:3 energy=-13.44485564899132 pbc="F F F"
W        0.00000000       0.00000000       0.00000000       0.00000000       0.00000000       0.80218571
W        0.00000000       0.00000000       2.18585859       0.00000000       0.00000000      -0.80218571
2
Properties=species:S:1:pos:R:3:forces:R:3 energy=-13.333054451484626 pbc="F F F"
W        0.00000000       0.00000000       0.00000000       0.00000000       0.00000000       2.86847162
W        0.00000000       0.00000000       2.24545455       0.00000000       0.00000000      -2.86847162
2
Properties=species:S:1:pos:R:3:forces:R:3 energy=-13.117332505704441 pbc="F F F"
W        0.00000000       0.00000000       0.00000000       0.00000000       0.00000000       4.24227095
W        0.00000000       0.00000000       2.30505051       0.00000000       0.00000000      -4.24227095
2
Properties=species:S:1:pos:R:3:forces:R:3 energy=-12.837624057236331 pbc="F F F"
W        0.00000000       0.00000000       0.00000000       0.00000000       0.00000000       5.08162785
W        0.00000000       0.00000000       2.36464646       0.00000000       0.00000000      -5.08162785
2
Properties=species:S:1:pos:R:3:forces:R:3 energy=-12.522287747048738 pbc="F F F"
W        0.00000000       0.00000000       0.00000000       0.00000000       0.00000000       5.39453459
W        0.00000000       0.00000000       2.42424242       0.00000000       0.00000000      -5.39453459
2
Properties=species:S:1:pos:R:3:forces:R:3 energy=-12.206220038904421 pbc="F F F"
W        0.00000000       0.00000000       0.00000000       0.00000000       0.00000000       5.13278913
W        0.00000000       0.00000000       2.48383838       0.00000000       0.00000000      -5.13278913
2
Properties=species:S:1:pos:R:3:forces:R:3 energy=-11.916062890600731 pbc="F F F"
W        0.00000000       0.00000000       0.00000000       0.00000000       0.00000000       4.59051800
W        0.00000000       0.00000000       2.54343434       0.00000000       0.00000000      -4.59051800
2
Properties=species:S:1:pos:R:3:forces:R:3 energy=-11.65971431803445 pbc="F F F"
W        0.00000000       0.00000000       0.00000000       0.00000000       0.00000000       4.00483704
W        0.00000000       0.00000000       2.60303030       0.00000000       0.00000000      -4.00483704
2
Properties=species:S:1:pos:R:3:forces:R:3 energy=-11.439287893854978 pbc="F F F"
W        0.00000000       0.00000000       0.00000000       0.00000000       0.00000000       3.39617920
W        0.00000000       0.00000000       2.66262626       0.00000000       0.00000000      -3.39617920
2
Properties=species:S:1:pos:R:3:forces:R:3 energy=-11.253642214869291 pbc="F F F"
W        0.00000000       0.00000000       0.00000000       0.00000000       0.00000000       2.84711623
W        0.00000000       0.00000000       2.72222222       0.00000000       0.00000000      -2.84711623
2
Properties=species:S:1:pos:R:3:forces:R:3 energy=-11.098562742619745 pbc="F F F"
W        0.00000000       0.00000000       0.00000000       0.00000000       0.00000000       2.36700177
W        0.00000000       0.00000000       2.78181818       0.00000000       0.00000000      -2.36700177
2
Properties=species:S:1:pos:R:3:forces:R:3 energy=-10.97034876501349 pbc="F F F"
W        0.00000000       0.00000000       0.00000000       0.00000000       0.00000000       1.94670188
W        0.00000000       0.00000000       2.84141414       0.00000000       0.00000000      -1.94670188
2
Properties=species:S:1:pos:R:3:forces:R:3 energy=-10.86501890784604 pbc="F F F"
W        0.00000000       0.00000000       0.00000000       0.00000000       0.00000000       1.60261667
W        0.00000000       0.00000000       2.90101010       0.00000000       0.00000000      -1.60261667
2
Properties=species:S:1:pos:R:3:forces:R:3 energy=-10.777469913536688 pbc="F F F"
W        0.00000000       0.00000000       0.00000000       0.00000000       0.00000000       1.35129583
W        0.00000000       0.00000000       2.96060606       0.00000000       0.00000000      -1.35129583
2
Properties=species:S:1:pos:R:3:forces:R:3 energy=-10.702224833787271 pbc="F F F"
W        0.00000000       0.00000000       0.00000000       0.00000000       0.00000000       1.18583286
W        0.00000000       0.00000000       3.02020202       0.00000000       0.00000000      -1.18583286
2
Properties=species:S:1:pos:R:3:forces:R:3 energy=-10.63517940888991 pbc="F F F"
W        0.00000000       0.00000000       0.00000000       0.00000000       0.00000000       1.06806254
W        0.00000000       0.00000000       3.07979798       0.00000000       0.00000000      -1.06806254
2
Properties=species:S:1:pos:R:3:forces:R:3 energy=-10.574822643121676 pbc="F F F"
W        0.00000000       0.00000000       0.00000000       0.00000000       0.00000000       0.95666564
W        0.00000000       0.00000000       3.13939394       0.00000000       0.00000000      -0.95666564
2
Properties=species:S:1:pos:R:3:forces:R:3 energy=-10.521210558384604 pbc="F F F"
W        0.00000000       0.00000000       0.00000000       0.00000000       0.00000000       0.84296352
W        0.00000000       0.00000000       3.19898990       0.00000000       0.00000000      -0.84296352
2
Properties=species:S:1:pos:R:3:forces:R:3 energy=-10.474146810807637 pbc="F F F"
W        0.00000000       0.00000000       0.00000000       0.00000000       0.00000000       0.73884112
W        0.00000000       0.00000000       3.25858586       0.00000000       0.00000000      -0.73884112
2
Properties=species:S:1:pos:R:3:forces:R:3 energy=-10.43286370451043 pbc="F F F"
W        0.00000000       0.00000000       0.00000000       0.00000000       0.00000000       0.64865917
W        0.00000000       0.00000000       3.31818182       0.00000000       0.00000000      -0.64865917
2
Properties=species:S:1:pos:R:3:forces:R:3 energy=-10.396659334847232 pbc="F F F"
W        0.00000000       0.00000000       0.00000000       0.00000000       0.00000000       0.56732398
W        0.00000000       0.00000000       3.37777778       0.00000000       0.00000000      -0.56732398
2
Properties=species:S:1:pos:R:3:forces:R:3 energy=-10.365170217895864 pbc="F F F"
W        0.00000000       0.00000000       0.00000000       0.00000000       0.00000000       0.48991510
W        0.00000000       0.00000000       3.43737374       0.00000000       0.00000000      -0.48991510
2
Properties=species:S:1:pos:R:3:forces:R:3 energy=-10.338195641562752 pbc="F F F"
W        0.00000000       0.00000000       0.00000000       0.00000000       0.00000000       0.41611689
W        0.00000000       0.00000000       3.49696970       0.00000000       0.00000000      -0.41611689
2
Properties=species:S:1:pos:R:3:forces:R:3 energy=-10.315446601508189 pbc="F F F"
W        0.00000000       0.00000000       0.00000000       0.00000000       0.00000000       0.34860960
W        0.00000000       0.00000000       3.55656566       0.00000000       0.00000000      -0.34860960
2
Properties=species:S:1:pos:R:3:forces:R:3 energy=-10.2964686325624 pbc="F F F"
W        0.00000000       0.00000000       0.00000000       0.00000000       0.00000000       0.28986409
W        0.00000000       0.00000000       3.61616162       0.00000000       0.00000000      -0.28986409
2
Properties=species:S:1:pos:R:3:forces:R:3 energy=-10.280703227188289 pbc="F F F"
W        0.00000000       0.00000000       0.00000000       0.00000000       0.00000000       0.24074361
W        0.00000000       0.00000000       3.67575758       0.00000000       0.00000000      -0.24074361
2
Properties=species:S:1:pos:R:3:forces:R:3 energy=-10.267587122148463 pbc="F F F"
W        0.00000000       0.00000000       0.00000000       0.00000000       0.00000000       0.20094097
W        0.00000000       0.00000000       3.73535354       0.00000000       0.00000000      -0.20094097
2
Properties=species:S:1:pos:R:3:forces:R:3 energy=-10.256583833114115 pbc="F F F"
W        0.00000000       0.00000000       0.00000000       0.00000000       0.00000000       0.16969979
W        0.00000000       0.00000000       3.79494949       0.00000000       0.00000000      -0.16969979
2
Properties=species:S:1:pos:R:3:forces:R:3 energy=-10.247210389224119 pbc="F F F"
W        0.00000000       0.00000000       0.00000000       0.00000000       0.00000000       0.14605395
W        0.00000000       0.00000000       3.85454545       0.00000000       0.00000000      -0.14605395
2
Properties=species:S:1:pos:R:3:forces:R:3 energy=-10.23905071303584 pbc="F F F"
W        0.00000000       0.00000000       0.00000000       0.00000000       0.00000000       0.12874809
W        0.00000000       0.00000000       3.91414141       0.00000000       0.00000000      -0.12874809
2
Properties=species:S:1:pos:R:3:forces:R:3 energy=-10.231771912184087 pbc="F F F"
W        0.00000000       0.00000000       0.00000000       0.00000000       0.00000000       0.11622350
W        0.00000000       0.00000000       3.97373737       0.00000000       0.00000000      -0.11622350
2
Properties=species:S:1:pos:R:3:forces:R:3 energy=-10.225134744455996 pbc="F F F"
W        0.00000000       0.00000000       0.00000000       0.00000000       0.00000000       0.10684783
W        0.00000000       0.00000000       4.03333333       0.00000000       0.00000000      -0.10684783
2
Properties=species:S:1:pos:R:3:forces:R:3 energy=-10.21899940952903 pbc="F F F"
W        0.00000000       0.00000000       0.00000000       0.00000000       0.00000000       0.09928086
W        0.00000000       0.00000000       4.09292929       0.00000000       0.00000000      -0.09928086
2
Properties=species:S:1:pos:R:3:forces:R:3 energy=-10.213282677976245 pbc="F F F"
W        0.00000000       0.00000000       0.00000000       0.00000000       0.00000000       0.09271595
W        0.00000000       0.00000000       4.15252525       0.00000000       0.00000000      -0.09271595
2
Properties=species:S:1:pos:R:3:forces:R:3 energy=-10.207933089398422 pbc="F F F"
W        0.00000000       0.00000000       0.00000000       0.00000000       0.00000000       0.08683003
W        0.00000000       0.00000000       4.21212121       0.00000000       0.00000000      -0.08683003
2
Properties=species:S:1:pos:R:3:forces:R:3 energy=-10.202920506356094 pbc="F F F"
W        0.00000000       0.00000000       0.00000000       0.00000000       0.00000000       0.08153863
W        0.00000000       0.00000000       4.27171717       0.00000000       0.00000000      -0.08153863
2
Properties=species:S:1:pos:R:3:forces:R:3 energy=-10.198205650644397 pbc="F F F"
W        0.00000000       0.00000000       0.00000000       0.00000000       0.00000000       0.07676249
W        0.00000000       0.00000000       4.33131313       0.00000000       0.00000000      -0.07676249
2
Properties=species:S:1:pos:R:3:forces:R:3 energy=-10.193763935647516 pbc="F F F"
W        0.00000000       0.00000000       0.00000000       0.00000000       0.00000000       0.07232152
W        0.00000000       0.00000000       4.39090909       0.00000000       0.00000000      -0.07232152
2
Properties=species:S:1:pos:R:3:forces:R:3 energy=-10.18958353998312 pbc="F F F"
W        0.00000000       0.00000000       0.00000000       0.00000000       0.00000000       0.06795989
W        0.00000000       0.00000000       4.45050505       0.00000000       0.00000000      -0.06795989
2
Properties=species:S:1:pos:R:3:forces:R:3 energy=-10.185667403550013 pbc="F F F"
W        0.00000000       0.00000000       0.00000000       0.00000000       0.00000000       0.06342584
W        0.00000000       0.00000000       4.51010101       0.00000000       0.00000000      -0.06342584
2
Properties=species:S:1:pos:R:3:forces:R:3 energy=-10.182032156644397 pbc="F F F"
W        0.00000000       0.00000000       0.00000000       0.00000000       0.00000000       0.05853721
W        0.00000000       0.00000000       4.56969697       0.00000000       0.00000000      -0.05853721
2
Properties=species:S:1:pos:R:3:forces:R:3 energy=-10.178697730912699 pbc="F F F"
W        0.00000000       0.00000000       0.00000000       0.00000000       0.00000000       0.05321109
W        0.00000000       0.00000000       4.62929293       0.00000000       0.00000000      -0.05321109
2
Properties=species:S:1:pos:R:3:forces:R:3 energy=-10.175695812539722 pbc="F F F"
W        0.00000000       0.00000000       0.00000000       0.00000000       0.00000000       0.04744936
W        0.00000000       0.00000000       4.68888889       0.00000000       0.00000000      -0.04744936
2
Properties=species:S:1:pos:R:3:forces:R:3 energy=-10.173050825783099 pbc="F F F"
W        0.00000000       0.00000000       0.00000000       0.00000000       0.00000000       0.04130868
W        0.00000000       0.00000000       4.74848485       0.00000000       0.00000000      -0.04130868
2
Properties=species:S:1:pos:R:3:forces:R:3 energy=-10.170778795565305 pbc="F F F"
W        0.00000000       0.00000000       0.00000000       0.00000000       0.00000000       0.03488761
W        0.00000000       0.00000000       4.80808081       0.00000000       0.00000000      -0.03488761
2
Properties=species:S:1:pos:R:3:forces:R:3 energy=-10.168897014097517 pbc="F F F"
W        0.00000000       0.00000000       0.00000000       0.00000000       0.00000000       0.02832372
W        0.00000000       0.00000000       4.86767677       0.00000000       0.00000000      -0.02832372
2
Properties=species:S:1:pos:R:3:forces:R:3 energy=-10.167401913133203 pbc="F F F"
W        0.00000000       0.00000000       0.00000000       0.00000000       0.00000000       0.02181280
W        0.00000000       0.00000000       4.92727273       0.00000000       0.00000000      -0.02181280
2
Properties=species:S:1:pos:R:3:forces:R:3 energy=-10.166289072121813 pbc="F F F"
W        0.00000000       0.00000000       0.00000000       0.00000000       0.00000000       0.01561446
W        0.00000000       0.00000000       4.98686869       0.00000000       0.00000000      -0.01561446
2
Properties=species:S:1:pos:R:3:forces:R:3 energy=-10.16552837832706 pbc="F F F"
W        0.00000000       0.00000000       0.00000000       0.00000000       0.00000000       0.01004024
W        0.00000000       0.00000000       5.04646465       0.00000000       0.00000000      -0.01004024
2
Properties=species:S:1:pos:R:3:forces:R:3 energy=-10.165072486350695 pbc="F F F"
W        0.00000000       0.00000000       0.00000000       0.00000000       0.00000000       0.00541264
W        0.00000000       0.00000000       5.10606061       0.00000000       0.00000000      -0.00541264
2
Properties=species:S:1:pos:R:3:forces:R:3 energy=-10.164858715977672 pbc="F F F"
W        0.00000000       0.00000000       0.00000000       0.00000000       0.00000000       0.00201071
W        0.00000000       0.00000000       5.16565657       0.00000000       0.00000000      -0.00201071
2
Properties=species:S:1:pos:R:3:forces:R:3 energy=-10.16480612462894 pbc="F F F"
W        0.00000000       0.00000000       0.00000000       0.00000000       0.00000000       0.00000928
W        0.00000000       0.00000000       5.22525253       0.00000000       0.00000000      -0.00000928
2
Properties=species:S:1:pos:R:3:forces:R:3 energy=-10.164829728528897 pbc="F F F"
W        0.00000000       0.00000000       0.00000000       0.00000000       0.00000000      -0.00056838
W        0.00000000       0.00000000       5.28484848       0.00000000       0.00000000       0.00056838
2
Properties=species:S:1:pos:R:3:forces:R:3 energy=-10.16484813051601 pbc="F F F"
W        0.00000000       0.00000000       0.00000000       0.00000000       0.00000000       0.00013869
W        0.00000000       0.00000000       5.34444444       0.00000000       0.00000000      -0.00013869
2
Properties=species:S:1:pos:R:3:forces:R:3 energy=-10.164792017580472 pbc="F F F"
W        0.00000000       0.00000000       0.00000000       0.00000000       0.00000000       0.00184765
W        0.00000000       0.00000000       5.40404040       0.00000000       0.00000000      -0.00184765
2
Properties=species:S:1:pos:R:3:forces:R:3 energy=-10.164616588724616 pbc="F F F"
W        0.00000000       0.00000000       0.00000000       0.00000000       0.00000000       0.00418256
W        0.00000000       0.00000000       5.46363636       0.00000000       0.00000000      -0.00418256
2
Properties=species:S:1:pos:R:3:forces:R:3 energy=-10.164290991685531 pbc="F F F"
W        0.00000000       0.00000000       0.00000000       0.00000000       0.00000000       0.00674075
W        0.00000000       0.00000000       5.52323232       0.00000000       0.00000000      -0.00674075
2
Properties=species:S:1:pos:R:3:forces:R:3 energy=-10.163813624489723 pbc="F F F"
W        0.00000000       0.00000000       0.00000000       0.00000000       0.00000000       0.00916037
W        0.00000000       0.00000000       5.58282828       0.00000000       0.00000000      -0.00916037
2
Properties=species:S:1:pos:R:3:forces:R:3 energy=-10.163206340547303 pbc="F F F"
W        0.00000000       0.00000000       0.00000000       0.00000000       0.00000000       0.01117032
W        0.00000000       0.00000000       5.64242424       0.00000000       0.00000000      -0.01117032
2
Properties=species:S:1:pos:R:3:forces:R:3 energy=-10.16249449910299 pbc="F F F"
W        0.00000000       0.00000000       0.00000000       0.00000000       0.00000000       0.01261855
W        0.00000000       0.00000000       5.70202020       0.00000000       0.00000000      -0.01261855
2
Properties=species:S:1:pos:R:3:forces:R:3 energy=-10.161712665107254 pbc="F F F"
W        0.00000000       0.00000000       0.00000000       0.00000000       0.00000000       0.01346897
W        0.00000000       0.00000000       5.76161616       0.00000000       0.00000000      -0.01346897
2
Properties=species:S:1:pos:R:3:forces:R:3 energy=-10.160899845596465 pbc="F F F"
W        0.00000000       0.00000000       0.00000000       0.00000000       0.00000000       0.01378152
W        0.00000000       0.00000000       5.82121212       0.00000000       0.00000000      -0.01378152
2
Properties=species:S:1:pos:R:3:forces:R:3 energy=-10.160079516385222 pbc="F F F"
W        0.00000000       0.00000000       0.00000000       0.00000000       0.00000000       0.01367195
W        0.00000000       0.00000000       5.88080808       0.00000000       0.00000000      -0.01367195
2
Properties=species:S:1:pos:R:3:forces:R:3 energy=-10.159276775532769 pbc="F F F"
W        0.00000000       0.00000000       0.00000000       0.00000000       0.00000000       0.01328215
W        0.00000000       0.00000000       5.94040404       0.00000000       0.00000000      -0.01328215
2
Properties=species:S:1:pos:R:3:forces:R:3 energy=-10.15850123264218 pbc="F F F"
W        0.00000000       0.00000000       0.00000000       0.00000000       0.00000000       0.01275367
W        0.00000000       0.00000000       6.00000000       0.00000000       0.00000000      -0.01275367
