2
Properties=species:S:1:pos:R:3:forces:R:3 energy=-806712.2953143178 pbc="F F F"
Xe       0.00000000       0.00000000       0.00000000       0.00000000       0.00000000 4285004.50000000
Xe       0.00000000       0.00000000       0.10000000       0.00000000       0.00000000 -4285004.50000000
2
Properties=species:S:1:pos:R:3:forces:R:3 energy=-534349.6078143178 pbc="F F F"
Xe       0.00000000       0.00000000       0.00000000       0.00000000       0.00000000 4556594.00000000
Xe       0.00000000       0.00000000       0.15959596       0.00000000       0.00000000 -4556594.00000000
2
Properties=species:S:1:pos:R:3:forces:R:3 energy=-290852.8578143178 pbc="F F F"
Xe       0.00000000       0.00000000       0.00000000       0.00000000       0.00000000 3471023.75000000
Xe       0.00000000       0.00000000       0.21919192       0.00000000       0.00000000 -3471023.75000000
2
Properties=species:S:1:pos:R:3:forces:R:3 energy=-127821.92812681466 pbc="F F F"
Xe       0.00000000       0.00000000       0.00000000       0.00000000       0.00000000 2012842.12500000
Xe       0.00000000       0.00000000       0.27878788       0.00000000       0.00000000 -2012842.12500000
2
Properties=species:S:1:pos:R:3:forces:R:3 energy=-43901.91640806149 pbc="F F F"
Xe       0.00000000       0.00000000       0.00000000       0.00000000       0.00000000  887657.81250000
Xe       0.00000000       0.00000000       0.33838384       0.00000000       0.00000000 -887657.81250000
2
Properties=species:S:1:pos:R:3:forces:R:3 energy=-11548.888087742653 pbc="F F F"
Xe       0.00000000       0.00000000       0.00000000       0.00000000       0.00000000  290435.06250000
Xe       0.00000000       0.00000000       0.39797980       0.00000000       0.00000000 -290435.06250000
2
Properties=species:S:1:pos:R:3:forces:R:3 energy=-2000.6620135080634 pbc="F F F"
Xe       0.00000000       0.00000000       0.00000000       0.00000000       0.00000000   69525.10937500
Xe       0.00000000       0.00000000       0.45757576       0.00000000       0.00000000  -69525.10937500
2
Properties=species:S:1:pos:R:3:forces:R:3 energy=-85.05680412579926 pbc="F F F"
Xe       0.00000000       0.00000000       0.00000000       0.00000000       0.00000000    9771.91992188
Xe       0.00000000       0.00000000       0.51717172       0.00000000       0.00000000   -9771.91992188
2
Properties=species:S:1:pos:R:3:forces:R:3 energy=91.25482618024498 pbc="F F F"
Xe       0.00000000       0.00000000       0.00000000       0.00000000       0.00000000     125.94323730
Xe       0.00000000       0.00000000       0.57676768       0.00000000       0.00000000    -125.94323730
2
Properties=species:S:1:pos:R:3:forces:R:3 energy=64.86342307703745 pbc="F F F"
Xe       0.00000000       0.00000000       0.00000000       0.00000000       0.00000000    -275.46090698
Xe       0.00000000       0.00000000       0.63636364       0.00000000       0.00000000     275.46090698
2
Properties=species:S:1:pos:R:3:forces:R:3 energy=80.49861610018667 pbc="F F F"
Xe       0.00000000       0.00000000       0.00000000       0.00000000       0.00000000      38.23797226
Xe       0.00000000       0.00000000       0.69595960       0.00000000       0.00000000     -38.23797226
2
Properties=species:S:1:pos:R:3:forces:R:3 energy=67.2958956988513 pbc="F F F"
Xe       0.00000000       0.00000000       0.00000000       0.00000000       0.00000000    -301.86187744
Xe       0.00000000       0.00000000       0.75555556       0.00000000       0.00000000     301.86187744
2
Properties=species:S:1:pos:R:3:forces:R:3 energy=52.140004628854705 pbc="F F F"
Xe       0.00000000       0.00000000       0.00000000       0.00000000       0.00000000    -157.66241455
Xe       0.00000000       0.00000000       0.81515152       0.00000000       0.00000000     157.66241455
2
Properties=species:S:1:pos:R:3:forces:R:3 energy=43.46407130415127 pbc="F F F"
Xe       0.00000000       0.00000000       0.00000000       0.00000000       0.00000000    -123.42543793
Xe       0.00000000       0.00000000       0.87474747       0.00000000       0.00000000     123.42543793
2
Properties=species:S:1:pos:R:3:forces:R:3 energy=37.16983679692253 pbc="F F F"
Xe       0.00000000       0.00000000       0.00000000       0.00000000       0.00000000    -114.18315887
Xe       0.00000000       0.00000000       0.93434343       0.00000000       0.00000000     114.18315887
2
Properties=species:S:1:pos:R:3:forces:R:3 energy=30.125625456645736 pbc="F F F"
Xe       0.00000000       0.00000000       0.00000000       0.00000000       0.00000000    -110.88094330
Xe       0.00000000       0.00000000       0.99393939       0.00000000       0.00000000     110.88094330
2
Properties=species:S:1:pos:R:3:forces:R:3 energy=24.66504789401658 pbc="F F F"
Xe       0.00000000       0.00000000       0.00000000       0.00000000       0.00000000     -82.20750427
Xe       0.00000000       0.00000000       1.05353535       0.00000000       0.00000000      82.20750427
2
Properties=species:S:1:pos:R:3:forces:R:3 energy=20.373133815623987 pbc="F F F"
Xe       0.00000000       0.00000000       0.00000000       0.00000000       0.00000000     -71.34217834
Xe       0.00000000       0.00000000       1.11313131       0.00000000       0.00000000      71.34217834
2
Properties=species:S:1:pos:R:3:forces:R:3 energy=16.046752616631466 pbc="F F F"
Xe       0.00000000       0.00000000       0.00000000       0.00000000       0.00000000     -70.01380920
Xe       0.00000000       0.00000000       1.17272727       0.00000000       0.00000000      70.01380920
2
Properties=species:S:1:pos:R:3:forces:R:3 energy=12.610411571200833 pbc="F F F"
Xe       0.00000000       0.00000000       0.00000000       0.00000000       0.00000000     -44.35315323
Xe       0.00000000       0.00000000       1.23232323       0.00000000       0.00000000      44.35315323
2
Properties=species:S:1:pos:R:3:forces:R:3 energy=10.240172486979152 pbc="F F F"
Xe       0.00000000       0.00000000       0.00000000       0.00000000       0.00000000     -36.70269012
Xe       0.00000000       0.00000000       1.29191919       0.00000000       0.00000000      36.70269012
2
Properties=species:S:1:pos:R:3:forces:R:3 energy=8.499729551112068 pbc="F F F"
Xe       0.00000000       0.00000000       0.00000000       0.00000000       0.00000000     -22.78043938
Xe       0.00000000       0.00000000       1.35151515       0.00000000       0.00000000      22.78043938
2
Properties=species:S:1:pos:R:3:forces:R:3 energy=7.445914357881705 pbc="F F F"
Xe       0.00000000       0.00000000       0.00000000       0.00000000       0.00000000     -12.69094372
Xe       0.00000000       0.00000000       1.41111111       0.00000000       0.00000000      12.69094372
2
Properties=species:S:1:pos:R:3:forces:R:3 energy=6.87397234081056 pbc="F F F"
Xe       0.00000000       0.00000000       0.00000000       0.00000000       0.00000000      -7.50297213
Xe       0.00000000       0.00000000       1.47070707       0.00000000       0.00000000       7.50297213
2
Properties=species:S:1:pos:R:3:forces:R:3 energy=6.450975140142178 pbc="F F F"
Xe       0.00000000       0.00000000       0.00000000       0.00000000       0.00000000      -6.97474670
Xe       0.00000000       0.00000000       1.53030303       0.00000000       0.00000000       6.97474670
2
Properties=species:S:1:pos:R:3:forces:R:3 energy=6.023540803006429 pbc="F F F"
Xe       0.00000000       0.00000000       0.00000000       0.00000000       0.00000000      -7.79276752
Xe       0.00000000       0.00000000       1.58989899       0.00000000       0.00000000       7.79276752
2
Properties=species:S:1:pos:R:3:forces:R:3 energy=5.494903266189576 pbc="F F F"
Xe       0.00000000       0.00000000       0.00000000       0.00000000       0.00000000      -9.73275185
Xe       0.00000000       0.00000000       1.64949495       0.00000000       0.00000000       9.73275185
2
Properties=species:S:1:pos:R:3:forces:R:3 energy=4.8926813813898455 pbc="F F F"
Xe       0.00000000       0.00000000       0.00000000       0.00000000       0.00000000     -10.22089386
Xe       0.00000000       0.00000000       1.70909091       0.00000000       0.00000000      10.22089386
2
Properties=species:S:1:pos:R:3:forces:R:3 energy=4.306381807918595 pbc="F F F"
Xe       0.00000000       0.00000000       0.00000000       0.00000000       0.00000000      -9.33427906
Xe       0.00000000       0.00000000       1.76868687       0.00000000       0.00000000       9.33427906
2
Properties=species:S:1:pos:R:3:forces:R:3 energy=3.7849553271354224 pbc="F F F"
Xe       0.00000000       0.00000000       0.00000000       0.00000000       0.00000000      -8.16324615
Xe       0.00000000       0.00000000       1.82828283       0.00000000       0.00000000       8.16324615
2
Properties=species:S:1:pos:R:3:forces:R:3 energy=3.3377752806185756 pbc="F F F"
Xe       0.00000000       0.00000000       0.00000000       0.00000000       0.00000000      -6.83769083
Xe       0.00000000       0.00000000       1.88787879       0.00000000       0.00000000       6.83769083
2
Properties=species:S:1:pos:R:3:forces:R:3 energy=2.968256551019883 pbc="F F F"
Xe       0.00000000       0.00000000       0.00000000       0.00000000       0.00000000      -5.60863113
Xe       0.00000000       0.00000000       1.94747475       0.00000000       0.00000000       5.60863113
2
Properties=species:S:1:pos:R:3:forces:R:3 energy=2.664347406955428 pbc="F F F"
Xe       0.00000000       0.00000000       0.00000000       0.00000000       0.00000000      -4.62878942
Xe       0.00000000       0.00000000       2.00707071       0.00000000       0.00000000       4.62878942
2
Properties=species:S:1:pos:R:3:forces:R:3 energy=2.410835719552277 pbc="F F F"
Xe       0.00000000       0.00000000       0.00000000       0.00000000       0.00000000      -3.91041899
Xe       0.00000000       0.00000000       2.06666667       0.00000000       0.00000000       3.91041899
2
Properties=species:S:1:pos:R:3:forces:R:3 energy=2.198952478653802 pbc="F F F"
Xe       0.00000000       0.00000000       0.00000000       0.00000000       0.00000000      -3.20203519
Xe       0.00000000       0.00000000       2.12626263       0.00000000       0.00000000       3.20203519
2
Properties=species:S:1:pos:R:3:forces:R:3 energy=2.025248370810598 pbc="F F F"
Xe       0.00000000       0.00000000       0.00000000       0.00000000       0.00000000      -2.66454840
Xe       0.00000000       0.00000000       2.18585859       0.00000000       0.00000000       2.66454840
2
Properties=species:S:1:pos:R:3:forces:R:3 energy=1.8783529524002094 pbc="F F F"
Xe       0.00000000       0.00000000       0.00000000       0.00000000       0.00000000      -2.29790521
Xe       0.00000000       0.00000000       2.24545455       0.00000000       0.00000000       2.29790521
2
Properties=species:S:1:pos:R:3:forces:R:3 energy=1.7457629319217094 pbc="F F F"
Xe       0.00000000       0.00000000       0.00000000       0.00000000       0.00000000      -2.18888426
Xe       0.00000000       0.00000000       2.30505051       0.00000000       0.00000000       2.18888426
2
Properties=species:S:1:pos:R:3:forces:R:3 energy=1.6173726596437477 pbc="F F F"
Xe       0.00000000       0.00000000       0.00000000       0.00000000       0.00000000      -2.09922791
Xe       0.00000000       0.00000000       2.36464646       0.00000000       0.00000000       2.09922791
2
Properties=species:S:1:pos:R:3:forces:R:3 energy=1.4958958773664148 pbc="F F F"
Xe       0.00000000       0.00000000       0.00000000       0.00000000       0.00000000      -1.99079061
Xe       0.00000000       0.00000000       2.42424242       0.00000000       0.00000000       1.99079061
2
Properties=species:S:1:pos:R:3:forces:R:3 energy=1.3788355708022002 pbc="F F F"
Xe       0.00000000       0.00000000       0.00000000       0.00000000       0.00000000      -1.94272220
Xe       0.00000000       0.00000000       2.48383838       0.00000000       0.00000000       1.94272220
2
Properties=species:S:1:pos:R:3:forces:R:3 energy=1.26365476954479 pbc="F F F"
Xe       0.00000000       0.00000000       0.00000000       0.00000000       0.00000000      -1.92954648
Xe       0.00000000       0.00000000       2.54343434       0.00000000       0.00000000       1.92954648
2
Properties=species:S:1:pos:R:3:forces:R:3 energy=1.1484479401234629 pbc="F F F"
Xe       0.00000000       0.00000000       0.00000000       0.00000000       0.00000000      -1.93621409
Xe       0.00000000       0.00000000       2.60303030       0.00000000       0.00000000       1.93621409
2
Properties=species:S:1:pos:R:3:forces:R:3 energy=1.033190308861047 pbc="F F F"
Xe       0.00000000       0.00000000       0.00000000       0.00000000       0.00000000      -1.92695868
Xe       0.00000000       0.00000000       2.66262626       0.00000000       0.00000000       1.92695868
2
Properties=species:S:1:pos:R:3:forces:R:3 energy=0.9196729613352521 pbc="F F F"
Xe       0.00000000       0.00000000       0.00000000       0.00000000       0.00000000      -1.87237048
Xe       0.00000000       0.00000000       2.72222222       0.00000000       0.00000000       1.87237048
2
Properties=species:S:1:pos:R:3:forces:R:3 energy=0.8112205864592328 pbc="F F F"
Xe       0.00000000       0.00000000       0.00000000       0.00000000       0.00000000      -1.75977945
Xe       0.00000000       0.00000000       2.78181818       0.00000000       0.00000000       1.75977945
2
Properties=species:S:1:pos:R:3:forces:R:3 energy=0.7103854476350093 pbc="F F F"
Xe       0.00000000       0.00000000       0.00000000       0.00000000       0.00000000      -1.62290442
Xe       0.00000000       0.00000000       2.84141414       0.00000000       0.00000000       1.62290442
2
Properties=species:S:1:pos:R:3:forces:R:3 energy=0.6178315774676275 pbc="F F F"
Xe       0.00000000       0.00000000       0.00000000       0.00000000       0.00000000      -1.48288238
Xe       0.00000000       0.00000000       2.90101010       0.00000000       0.00000000       1.48288238
2
Properties=species:S:1:pos:R:3:forces:R:3 energy=0.533666062761352 pbc="F F F"
Xe       0.00000000       0.00000000       0.00000000       0.00000000       0.00000000      -1.34156537
Xe       0.00000000       0.00000000       2.96060606       0.00000000       0.00000000       1.34156537
2
Properties=species:S:1:pos:R:3:forces:R:3 energy=0.45786056539969555 pbc="F F F"
Xe       0.00000000       0.00000000       0.00000000       0.00000000       0.00000000      -1.20367920
Xe       0.00000000       0.00000000       3.02020202       0.00000000       0.00000000       1.20367920
2
Properties=species:S:1:pos:R:3:forces:R:3 energy=0.3900052078475213 pbc="F F F"
Xe       0.00000000       0.00000000       0.00000000       0.00000000       0.00000000      -1.07540107
Xe       0.00000000       0.00000000       3.07979798       0.00000000       0.00000000       1.07540107
2
Properties=species:S:1:pos:R:3:forces:R:3 energy=0.32947831450807413 pbc="F F F"
Xe       0.00000000       0.00000000       0.00000000       0.00000000       0.00000000      -0.95723599
Xe       0.00000000       0.00000000       3.13939394       0.00000000       0.00000000       0.95723599
2
Properties=species:S:1:pos:R:3:forces:R:3 energy=0.27576296190394073 pbc="F F F"
Xe       0.00000000       0.00000000       0.00000000       0.00000000       0.00000000      -0.84646392
Xe       0.00000000       0.00000000       3.19898990       0.00000000       0.00000000       0.84646392
2
Properties=species:S:1:pos:R:3:forces:R:3 energy=0.22847936558994125 pbc="F F F"
Xe       0.00000000       0.00000000       0.00000000       0.00000000       0.00000000      -0.74135578
Xe       0.00000000       0.00000000       3.25858586       0.00000000       0.00000000       0.74135578
2
Properties=species:S:1:pos:R:3:forces:R:3 energy=0.18727228322735065 pbc="F F F"
Xe       0.00000000       0.00000000       0.00000000       0.00000000       0.00000000      -0.64275461
Xe       0.00000000       0.00000000       3.31818182       0.00000000       0.00000000       0.64275461
2
Properties=species:S:1:pos:R:3:forces:R:3 energy=0.1516888999218885 pbc="F F F"
Xe       0.00000000       0.00000000       0.00000000       0.00000000       0.00000000      -0.55296069
Xe       0.00000000       0.00000000       3.37777778       0.00000000       0.00000000       0.55296069
2
Properties=species:S:1:pos:R:3:forces:R:3 energy=0.12115393765682808 pbc="F F F"
Xe       0.00000000       0.00000000       0.00000000       0.00000000       0.00000000      -0.47355136
Xe       0.00000000       0.00000000       3.43737374       0.00000000       0.00000000       0.47355136
2
Properties=species:S:1:pos:R:3:forces:R:3 energy=0.09503451148215619 pbc="F F F"
Xe       0.00000000       0.00000000       0.00000000       0.00000000       0.00000000      -0.40482959
Xe       0.00000000       0.00000000       3.49696970       0.00000000       0.00000000       0.40482959
2
Properties=species:S:1:pos:R:3:forces:R:3 energy=0.07270103795793731 pbc="F F F"
Xe       0.00000000       0.00000000       0.00000000       0.00000000       0.00000000      -0.34628168
Xe       0.00000000       0.00000000       3.55656566       0.00000000       0.00000000       0.34628168
2
Properties=species:S:1:pos:R:3:forces:R:3 energy=0.05358063458038804 pbc="F F F"
Xe       0.00000000       0.00000000       0.00000000       0.00000000       0.00000000      -0.29686749
Xe       0.00000000       0.00000000       3.61616162       0.00000000       0.00000000       0.29686749
2
Properties=species:S:1:pos:R:3:forces:R:3 energy=0.03716280381390972 pbc="F F F"
Xe       0.00000000       0.00000000       0.00000000       0.00000000       0.00000000      -0.25523889
Xe       0.00000000       0.00000000       3.67575758       0.00000000       0.00000000       0.25523889
2
Properties=species:S:1:pos:R:3:forces:R:3 energy=0.02302990631970342 pbc="F F F"
Xe       0.00000000       0.00000000       0.00000000       0.00000000       0.00000000      -0.22000352
Xe       0.00000000       0.00000000       3.73535354       0.00000000       0.00000000       0.22000352
2
Properties=species:S:1:pos:R:3:forces:R:3 energy=0.010839994818074593 pbc="F F F"
Xe       0.00000000       0.00000000       0.00000000       0.00000000       0.00000000      -0.18988848
Xe       0.00000000       0.00000000       3.79494949       0.00000000       0.00000000       0.18988848
2
Properties=species:S:1:pos:R:3:forces:R:3 energy=0.0003172836809133203 pbc="F F F"
Xe       0.00000000       0.00000000       0.00000000       0.00000000       0.00000000      -0.16378321
Xe       0.00000000       0.00000000       3.85454545       0.00000000       0.00000000       0.16378321
2
Properties=species:S:1:pos:R:3:forces:R:3 energy=-0.008745931048384309 pbc="F F F"
Xe       0.00000000       0.00000000       0.00000000       0.00000000       0.00000000      -0.14076693
Xe       0.00000000       0.00000000       3.91414141       0.00000000       0.00000000       0.14076693
2
Properties=species:S:1:pos:R:3:forces:R:3 energy=-0.016512061636023322 pbc="F F F"
Xe       0.00000000       0.00000000       0.00000000       0.00000000       0.00000000      -0.12016068
Xe       0.00000000       0.00000000       3.97373737       0.00000000       0.00000000       0.12016068
2
Properties=species:S:1:pos:R:3:forces:R:3 energy=-0.0231077812400847 pbc="F F F"
Xe       0.00000000       0.00000000       0.00000000       0.00000000       0.00000000      -0.10156235
Xe       0.00000000       0.00000000       4.03333333       0.00000000       0.00000000       0.10156235
2
Properties=species:S:1:pos:R:3:forces:R:3 energy=-0.028652472581087992 pbc="F F F"
Xe       0.00000000       0.00000000       0.00000000       0.00000000       0.00000000      -0.08481120
Xe       0.00000000       0.00000000       4.09292929       0.00000000       0.00000000       0.08481120
2
Properties=species:S:1:pos:R:3:forces:R:3 energy=-0.03325245204311639 pbc="F F F"
Xe       0.00000000       0.00000000       0.00000000       0.00000000       0.00000000      -0.06990018
Xe       0.00000000       0.00000000       4.15252525       0.00000000       0.00000000       0.06990018
2
Properties=species:S:1:pos:R:3:forces:R:3 energy=-0.037021841218913526 pbc="F F F"
Xe       0.00000000       0.00000000       0.00000000       0.00000000       0.00000000      -0.05686914
Xe       0.00000000       0.00000000       4.21212121       0.00000000       0.00000000       0.05686914
2
Properties=species:S:1:pos:R:3:forces:R:3 energy=-0.040067143394069325 pbc="F F F"
Xe       0.00000000       0.00000000       0.00000000       0.00000000       0.00000000      -0.04570958
Xe       0.00000000       0.00000000       4.27171717       0.00000000       0.00000000       0.04570958
2
Properties=species:S:1:pos:R:3:forces:R:3 energy=-0.042502456402661315 pbc="F F F"
Xe       0.00000000       0.00000000       0.00000000       0.00000000       0.00000000      -0.03630256
Xe       0.00000000       0.00000000       4.33131313       0.00000000       0.00000000       0.03630256
2
Properties=species:S:1:pos:R:3:forces:R:3 energy=-0.0444245377108536 pbc="F F F"
Xe       0.00000000       0.00000000       0.00000000       0.00000000       0.00000000      -0.02840609
Xe       0.00000000       0.00000000       4.39090909       0.00000000       0.00000000       0.02840609
2
Properties=species:S:1:pos:R:3:forces:R:3 energy=-0.04591269829485484 pbc="F F F"
Xe       0.00000000       0.00000000       0.00000000       0.00000000       0.00000000      -0.02170019
Xe       0.00000000       0.00000000       4.45050505       0.00000000       0.00000000       0.02170019
2
Properties=species:S:1:pos:R:3:forces:R:3 energy=-0.04702874562011965 pbc="F F F"
Xe       0.00000000       0.00000000       0.00000000       0.00000000       0.00000000      -0.01586639
Xe       0.00000000       0.00000000       4.51010101       0.00000000       0.00000000       0.01586639
2
Properties=species:S:1:pos:R:3:forces:R:3 energy=-0.04781494641200768 pbc="F F F"
Xe       0.00000000       0.00000000       0.00000000       0.00000000       0.00000000      -0.01066428
Xe       0.00000000       0.00000000       4.56969697       0.00000000       0.00000000       0.01066428
2
Properties=species:S:1:pos:R:3:forces:R:3 energy=-0.048307420861812354 pbc="F F F"
Xe       0.00000000       0.00000000       0.00000000       0.00000000       0.00000000      -0.00596751
Xe       0.00000000       0.00000000       4.62929293       0.00000000       0.00000000       0.00596751
2
Properties=species:S:1:pos:R:3:forces:R:3 energy=-0.048539846450251244 pbc="F F F"
Xe       0.00000000       0.00000000       0.00000000       0.00000000       0.00000000      -0.00174953
Xe       0.00000000       0.00000000       4.68888889       0.00000000       0.00000000       0.00174953
2
Properties=species:S:1:pos:R:3:forces:R:3 energy=-0.04853014927263542 pbc="F F F"
Xe       0.00000000       0.00000000       0.00000000       0.00000000       0.00000000       0.00196117
Xe       0.00000000       0.00000000       4.74848485       0.00000000       0.00000000      -0.00196117
2
Properties=species:S:1:pos:R:3:forces:R:3 energy=-0.04831476345435068 pbc="F F F"
Xe       0.00000000       0.00000000       0.00000000       0.00000000       0.00000000       0.00512763
Xe       0.00000000       0.00000000       4.80808081       0.00000000       0.00000000      -0.00512763
2
Properties=species:S:1:pos:R:3:forces:R:3 energy=-0.0479296732900378 pbc="F F F"
Xe       0.00000000       0.00000000       0.00000000       0.00000000       0.00000000       0.00773374
Xe       0.00000000       0.00000000       4.86767677       0.00000000       0.00000000      -0.00773374
2
Properties=species:S:1:pos:R:3:forces:R:3 energy=-0.04740083056700735 pbc="F F F"
Xe       0.00000000       0.00000000       0.00000000       0.00000000       0.00000000       0.00978670
Xe       0.00000000       0.00000000       4.92727273       0.00000000       0.00000000      -0.00978670
2
Properties=species:S:1:pos:R:3:forces:R:3 energy=-0.04677091921863094 pbc="F F F"
Xe       0.00000000       0.00000000       0.00000000       0.00000000       0.00000000       0.01130710
Xe       0.00000000       0.00000000       4.98686869       0.00000000       0.00000000      -0.01130710
2
Properties=species:S:1:pos:R:3:forces:R:3 energy=-0.04606506739846066 pbc="F F F"
Xe       0.00000000       0.00000000       0.00000000       0.00000000       0.00000000       0.01231726
Xe       0.00000000       0.00000000       5.04646465       0.00000000       0.00000000      -0.01231726
2
Properties=species:S:1:pos:R:3:forces:R:3 energy=-0.04531375625466682 pbc="F F F"
Xe       0.00000000       0.00000000       0.00000000       0.00000000       0.00000000       0.01284045
Xe       0.00000000       0.00000000       5.10606061       0.00000000       0.00000000      -0.01284045
2
Properties=species:S:1:pos:R:3:forces:R:3 energy=-0.04454908442832598 pbc="F F F"
Xe       0.00000000       0.00000000       0.00000000       0.00000000       0.00000000       0.01290843
Xe       0.00000000       0.00000000       5.16565657       0.00000000       0.00000000      -0.01290843
2
Properties=species:S:1:pos:R:3:forces:R:3 energy=-0.043783822064503694 pbc="F F F"
Xe       0.00000000       0.00000000       0.00000000       0.00000000       0.00000000       0.01257339
Xe       0.00000000       0.00000000       5.22525253       0.00000000       0.00000000      -0.01257339
2
Properties=species:S:1:pos:R:3:forces:R:3 energy=-0.04305339465693136 pbc="F F F"
Xe       0.00000000       0.00000000       0.00000000       0.00000000       0.00000000       0.01191566
Xe       0.00000000       0.00000000       5.28484848       0.00000000       0.00000000      -0.01191566
2
Properties=species:S:1:pos:R:3:forces:R:3 energy=-0.04236446145460742 pbc="F F F"
Xe       0.00000000       0.00000000       0.00000000       0.00000000       0.00000000       0.01103949
Xe       0.00000000       0.00000000       5.34444444       0.00000000       0.00000000      -0.01103949
2
Properties=species:S:1:pos:R:3:forces:R:3 energy=-0.04174069895658468 pbc="F F F"
Xe       0.00000000       0.00000000       0.00000000       0.00000000       0.00000000       0.01006075
Xe       0.00000000       0.00000000       5.40404040       0.00000000       0.00000000      -0.01006075
2
Properties=species:S:1:pos:R:3:forces:R:3 energy=-0.04116563272205136 pbc="F F F"
Xe       0.00000000       0.00000000       0.00000000       0.00000000       0.00000000       0.00908920
Xe       0.00000000       0.00000000       5.46363636       0.00000000       0.00000000      -0.00908920
2
Properties=species:S:1:pos:R:3:forces:R:3 energy=-0.0406551403770441 pbc="F F F"
Xe       0.00000000       0.00000000       0.00000000       0.00000000       0.00000000       0.00821113
Xe       0.00000000       0.00000000       5.52323232       0.00000000       0.00000000      -0.00821113
2
Properties=species:S:1:pos:R:3:forces:R:3 energy=-0.04018500483657806 pbc="F F F"
Xe       0.00000000       0.00000000       0.00000000       0.00000000       0.00000000       0.00747805
Xe       0.00000000       0.00000000       5.58282828       0.00000000       0.00000000      -0.00747805
2
Properties=species:S:1:pos:R:3:forces:R:3 energy=-0.03975767150679544 pbc="F F F"
Xe       0.00000000       0.00000000       0.00000000       0.00000000       0.00000000       0.00690277
Xe       0.00000000       0.00000000       5.64242424       0.00000000       0.00000000      -0.00690277
2
Properties=species:S:1:pos:R:3:forces:R:3 energy=-0.03936224068905301 pbc="F F F"
Xe       0.00000000       0.00000000       0.00000000       0.00000000       0.00000000       0.00646456
Xe       0.00000000       0.00000000       5.70202020       0.00000000       0.00000000      -0.00646456
2
Properties=species:S:1:pos:R:3:forces:R:3 energy=-0.0389878245640406 pbc="F F F"
Xe       0.00000000       0.00000000       0.00000000       0.00000000       0.00000000       0.00612024
Xe       0.00000000       0.00000000       5.76161616       0.00000000       0.00000000      -0.00612024
2
Properties=species:S:1:pos:R:3:forces:R:3 energy=-0.03862926725779071 pbc="F F F"
Xe       0.00000000       0.00000000       0.00000000       0.00000000       0.00000000       0.00582024
Xe       0.00000000       0.00000000       5.82121212       0.00000000       0.00000000      -0.00582024
2
Properties=species:S:1:pos:R:3:forces:R:3 energy=-0.03829099240509887 pbc="F F F"
Xe       0.00000000       0.00000000       0.00000000       0.00000000       0.00000000       0.00552451
Xe       0.00000000       0.00000000       5.88080808       0.00000000       0.00000000      -0.00552451
2
Properties=species:S:1:pos:R:3:forces:R:3 energy=-0.037969825132495326 pbc="F F F"
Xe       0.00000000       0.00000000       0.00000000       0.00000000       0.00000000       0.00521529
Xe       0.00000000       0.00000000       5.94040404       0.00000000       0.00000000      -0.00521529
2
Properties=species:S:1:pos:R:3:forces:R:3 energy=-0.0376702698542404 pbc="F F F"
Xe       0.00000000       0.00000000       0.00000000       0.00000000       0.00000000       0.00489970
Xe       0.00000000       0.00000000       6.00000000       0.00000000       0.00000000      -0.00489970
