2
Properties=species:S:1:pos:R:3:forces:R:3 energy=-208721.79251398213 pbc="F F F"
Yb       0.00000000       0.00000000       0.00000000       0.00000000       0.00000000 1278519.25000000
Yb       0.00000000       0.00000000       0.10000000       0.00000000       0.00000000 -1278519.25000000
2
Properties=species:S:1:pos:R:3:forces:R:3 energy=-128209.99563898212 pbc="F F F"
Yb       0.00000000       0.00000000       0.00000000       0.00000000       0.00000000 1324706.75000000
Yb       0.00000000       0.00000000       0.15959596       0.00000000       0.00000000 -1324706.75000000
2
Properties=species:S:1:pos:R:3:forces:R:3 energy=-59874.222201482116 pbc="F F F"
Yb       0.00000000       0.00000000       0.00000000       0.00000000       0.00000000  923407.25000000
Yb       0.00000000       0.00000000       0.21919192       0.00000000       0.00000000 -923407.25000000
2
Properties=species:S:1:pos:R:3:forces:R:3 energy=-18612.42337335712 pbc="F F F"
Yb       0.00000000       0.00000000       0.00000000       0.00000000       0.00000000  616250.93750000
Yb       0.00000000       0.00000000       0.27878788       0.00000000       0.00000000 -616250.93750000
2
Properties=species:S:1:pos:R:3:forces:R:3 energy=6072.269009461717 pbc="F F F"
Yb       0.00000000       0.00000000       0.00000000       0.00000000       0.00000000  -18754.29101562
Yb       0.00000000       0.00000000       0.33838384       0.00000000       0.00000000   18754.29101562
2
Properties=species:S:1:pos:R:3:forces:R:3 energy=1589.7165192273421 pbc="F F F"
Yb       0.00000000       0.00000000       0.00000000       0.00000000       0.00000000  -68121.45312500
Yb       0.00000000       0.00000000       0.39797980       0.00000000       0.00000000   68121.45312500
2
Properties=species:S:1:pos:R:3:forces:R:3 energy=-142.22011102168136 pbc="F F F"
Yb       0.00000000       0.00000000       0.00000000       0.00000000       0.00000000   -4332.71142578
Yb       0.00000000       0.00000000       0.45757576       0.00000000       0.00000000    4332.71142578
2
Properties=species:S:1:pos:R:3:forces:R:3 energy=-126.9619399274671 pbc="F F F"
Yb       0.00000000       0.00000000       0.00000000       0.00000000       0.00000000    1923.50427246
Yb       0.00000000       0.00000000       0.51717172       0.00000000       0.00000000   -1923.50427246
2
Properties=species:S:1:pos:R:3:forces:R:3 energy=-31.21104535561573 pbc="F F F"
Yb       0.00000000       0.00000000       0.00000000       0.00000000       0.00000000     740.31958008
Yb       0.00000000       0.00000000       0.57676768       0.00000000       0.00000000    -740.31958008
2
Properties=species:S:1:pos:R:3:forces:R:3 energy=-21.21168046469659 pbc="F F F"
Yb       0.00000000       0.00000000       0.00000000       0.00000000       0.00000000       0.50352579
Yb       0.00000000       0.00000000       0.63636364       0.00000000       0.00000000      -0.50352579
2
Properties=species:S:1:pos:R:3:forces:R:3 energy=-40.30602930881085 pbc="F F F"
Yb       0.00000000       0.00000000       0.00000000       0.00000000       0.00000000     268.81774902
Yb       0.00000000       0.00000000       0.69595960       0.00000000       0.00000000    -268.81774902
2
Properties=species:S:1:pos:R:3:forces:R:3 energy=-8.587757004608708 pbc="F F F"
Yb       0.00000000       0.00000000       0.00000000       0.00000000       0.00000000     553.95031738
Yb       0.00000000       0.00000000       0.75555556       0.00000000       0.00000000    -553.95031738
2
Properties=species:S:1:pos:R:3:forces:R:3 energy=24.348387963571852 pbc="F F F"
Yb       0.00000000       0.00000000       0.00000000       0.00000000       0.00000000     566.01574707
Yb       0.00000000       0.00000000       0.81515152       0.00000000       0.00000000    -566.01574707
2
Properties=species:S:1:pos:R:3:forces:R:3 energy=47.21052691448142 pbc="F F F"
Yb       0.00000000       0.00000000       0.00000000       0.00000000       0.00000000     204.76161194
Yb       0.00000000       0.00000000       0.87474747       0.00000000       0.00000000    -204.76161194
2
Properties=species:S:1:pos:R:3:forces:R:3 energy=53.410188460803866 pbc="F F F"
Yb       0.00000000       0.00000000       0.00000000       0.00000000       0.00000000     -34.61743164
Yb       0.00000000       0.00000000       0.93434343       0.00000000       0.00000000      34.61743164
2
Properties=species:S:1:pos:R:3:forces:R:3 energy=47.5924131336311 pbc="F F F"
Yb       0.00000000       0.00000000       0.00000000       0.00000000       0.00000000    -115.38567352
Yb       0.00000000       0.00000000       0.99393939       0.00000000       0.00000000     115.38567352
2
Properties=species:S:1:pos:R:3:forces:R:3 energy=41.98351550298342 pbc="F F F"
Yb       0.00000000       0.00000000       0.00000000       0.00000000       0.00000000     -85.79942322
Yb       0.00000000       0.00000000       1.05353535       0.00000000       0.00000000      85.79942322
2
Properties=species:S:1:pos:R:3:forces:R:3 energy=36.748412630740425 pbc="F F F"
Yb       0.00000000       0.00000000       0.00000000       0.00000000       0.00000000     -74.16749573
Yb       0.00000000       0.00000000       1.11313131       0.00000000       0.00000000      74.16749573
2
Properties=species:S:1:pos:R:3:forces:R:3 energy=32.75943805618473 pbc="F F F"
Yb       0.00000000       0.00000000       0.00000000       0.00000000       0.00000000     -66.51050568
Yb       0.00000000       0.00000000       1.17272727       0.00000000       0.00000000      66.51050568
2
Properties=species:S:1:pos:R:3:forces:R:3 energy=29.54204542284894 pbc="F F F"
Yb       0.00000000       0.00000000       0.00000000       0.00000000       0.00000000     -41.02544022
Yb       0.00000000       0.00000000       1.23232323       0.00000000       0.00000000      41.02544022
2
Properties=species:S:1:pos:R:3:forces:R:3 energy=27.631169785312455 pbc="F F F"
Yb       0.00000000       0.00000000       0.00000000       0.00000000       0.00000000     -27.64184761
Yb       0.00000000       0.00000000       1.29191919       0.00000000       0.00000000      27.64184761
2
Properties=species:S:1:pos:R:3:forces:R:3 energy=25.93592796459812 pbc="F F F"
Yb       0.00000000       0.00000000       0.00000000       0.00000000       0.00000000     -28.06188583
Yb       0.00000000       0.00000000       1.35151515       0.00000000       0.00000000      28.06188583
2
Properties=species:S:1:pos:R:3:forces:R:3 energy=24.05656839886824 pbc="F F F"
Yb       0.00000000       0.00000000       0.00000000       0.00000000       0.00000000     -36.65429306
Yb       0.00000000       0.00000000       1.41111111       0.00000000       0.00000000      36.65429306
2
Properties=species:S:1:pos:R:3:forces:R:3 energy=21.780770861734336 pbc="F F F"
Yb       0.00000000       0.00000000       0.00000000       0.00000000       0.00000000     -35.46547318
Yb       0.00000000       0.00000000       1.47070707       0.00000000       0.00000000      35.46547318
2
Properties=species:S:1:pos:R:3:forces:R:3 energy=20.031591122377353 pbc="F F F"
Yb       0.00000000       0.00000000       0.00000000       0.00000000       0.00000000     -25.71496391
Yb       0.00000000       0.00000000       1.53030303       0.00000000       0.00000000      25.71496391
2
Properties=species:S:1:pos:R:3:forces:R:3 energy=18.45095511927776 pbc="F F F"
Yb       0.00000000       0.00000000       0.00000000       0.00000000       0.00000000     -28.53556061
Yb       0.00000000       0.00000000       1.58989899       0.00000000       0.00000000      28.53556061
2
Properties=species:S:1:pos:R:3:forces:R:3 energy=16.67140660634766 pbc="F F F"
Yb       0.00000000       0.00000000       0.00000000       0.00000000       0.00000000     -30.22762489
Yb       0.00000000       0.00000000       1.64949495       0.00000000       0.00000000      30.22762489
2
Properties=species:S:1:pos:R:3:forces:R:3 energy=14.81486918229779 pbc="F F F"
Yb       0.00000000       0.00000000       0.00000000       0.00000000       0.00000000     -32.28414154
Yb       0.00000000       0.00000000       1.70909091       0.00000000       0.00000000      32.28414154
2
Properties=species:S:1:pos:R:3:forces:R:3 energy=12.926158126016613 pbc="F F F"
Yb       0.00000000       0.00000000       0.00000000       0.00000000       0.00000000     -30.69201279
Yb       0.00000000       0.00000000       1.76868687       0.00000000       0.00000000      30.69201279
2
Properties=species:S:1:pos:R:3:forces:R:3 energy=11.104392851988697 pbc="F F F"
Yb       0.00000000       0.00000000       0.00000000       0.00000000       0.00000000     -30.56173515
Yb       0.00000000       0.00000000       1.82828283       0.00000000       0.00000000      30.56173515
2
Properties=species:S:1:pos:R:3:forces:R:3 energy=9.344078567571255 pbc="F F F"
Yb       0.00000000       0.00000000       0.00000000       0.00000000       0.00000000     -28.20111465
Yb       0.00000000       0.00000000       1.88787879       0.00000000       0.00000000      28.20111465
2
Properties=species:S:1:pos:R:3:forces:R:3 energy=7.757192651904952 pbc="F F F"
Yb       0.00000000       0.00000000       0.00000000       0.00000000       0.00000000     -24.94833565
Yb       0.00000000       0.00000000       1.94747475       0.00000000       0.00000000      24.94833565
2
Properties=species:S:1:pos:R:3:forces:R:3 energy=6.383645763581864 pbc="F F F"
Yb       0.00000000       0.00000000       0.00000000       0.00000000       0.00000000     -21.06655502
Yb       0.00000000       0.00000000       2.00707071       0.00000000       0.00000000      21.06655502
2
Properties=species:S:1:pos:R:3:forces:R:3 energy=5.240013581183082 pbc="F F F"
Yb       0.00000000       0.00000000       0.00000000       0.00000000       0.00000000     -17.42290497
Yb       0.00000000       0.00000000       2.06666667       0.00000000       0.00000000      17.42290497
2
Properties=species:S:1:pos:R:3:forces:R:3 energy=4.303087930039646 pbc="F F F"
Yb       0.00000000       0.00000000       0.00000000       0.00000000       0.00000000     -14.04498959
Yb       0.00000000       0.00000000       2.12626263       0.00000000       0.00000000      14.04498959
2
Properties=species:S:1:pos:R:3:forces:R:3 energy=3.5510405768758537 pbc="F F F"
Yb       0.00000000       0.00000000       0.00000000       0.00000000       0.00000000     -11.35681438
Yb       0.00000000       0.00000000       2.18585859       0.00000000       0.00000000      11.35681438
2
Properties=species:S:1:pos:R:3:forces:R:3 energy=2.939512846732508 pbc="F F F"
Yb       0.00000000       0.00000000       0.00000000       0.00000000       0.00000000      -9.19961452
Yb       0.00000000       0.00000000       2.24545455       0.00000000       0.00000000       9.19961452
2
Properties=species:S:1:pos:R:3:forces:R:3 energy=2.448357960866619 pbc="F F F"
Yb       0.00000000       0.00000000       0.00000000       0.00000000       0.00000000      -7.34574795
Yb       0.00000000       0.00000000       2.30505051       0.00000000       0.00000000       7.34574795
2
Properties=species:S:1:pos:R:3:forces:R:3 energy=2.0546711650973055 pbc="F F F"
Yb       0.00000000       0.00000000       0.00000000       0.00000000       0.00000000      -5.96167135
Yb       0.00000000       0.00000000       2.36464646       0.00000000       0.00000000       5.96167135
2
Properties=species:S:1:pos:R:3:forces:R:3 energy=1.728595520847393 pbc="F F F"
Yb       0.00000000       0.00000000       0.00000000       0.00000000       0.00000000      -5.02514315
Yb       0.00000000       0.00000000       2.42424242       0.00000000       0.00000000       5.02514315
2
Properties=species:S:1:pos:R:3:forces:R:3 energy=1.4519260823375588 pbc="F F F"
Yb       0.00000000       0.00000000       0.00000000       0.00000000       0.00000000      -4.28772116
Yb       0.00000000       0.00000000       2.48383838       0.00000000       0.00000000       4.28772116
2
Properties=species:S:1:pos:R:3:forces:R:3 energy=1.2155398963590802 pbc="F F F"
Yb       0.00000000       0.00000000       0.00000000       0.00000000       0.00000000      -3.65596962
Yb       0.00000000       0.00000000       2.54343434       0.00000000       0.00000000       3.65596962
2
Properties=species:S:1:pos:R:3:forces:R:3 energy=1.0136165648540159 pbc="F F F"
Yb       0.00000000       0.00000000       0.00000000       0.00000000       0.00000000      -3.15245175
Yb       0.00000000       0.00000000       2.60303030       0.00000000       0.00000000       3.15245175
2
Properties=species:S:1:pos:R:3:forces:R:3 energy=0.8361710953949876 pbc="F F F"
Yb       0.00000000       0.00000000       0.00000000       0.00000000       0.00000000      -2.82425570
Yb       0.00000000       0.00000000       2.66262626       0.00000000       0.00000000       2.82425570
2
Properties=species:S:1:pos:R:3:forces:R:3 energy=0.6757401815095911 pbc="F F F"
Yb       0.00000000       0.00000000       0.00000000       0.00000000       0.00000000      -2.56118870
Yb       0.00000000       0.00000000       2.72222222       0.00000000       0.00000000       2.56118870
2
Properties=species:S:1:pos:R:3:forces:R:3 energy=0.5311495093336747 pbc="F F F"
Yb       0.00000000       0.00000000       0.00000000       0.00000000       0.00000000      -2.28882027
Yb       0.00000000       0.00000000       2.78181818       0.00000000       0.00000000       2.28882027
2
Properties=species:S:1:pos:R:3:forces:R:3 energy=0.4029428536336024 pbc="F F F"
Yb       0.00000000       0.00000000       0.00000000       0.00000000       0.00000000      -2.01628089
Yb       0.00000000       0.00000000       2.84141414       0.00000000       0.00000000       2.01628089
2
Properties=species:S:1:pos:R:3:forces:R:3 energy=0.2902327584456515 pbc="F F F"
Yb       0.00000000       0.00000000       0.00000000       0.00000000       0.00000000      -1.77290976
Yb       0.00000000       0.00000000       2.90101010       0.00000000       0.00000000       1.77290976
2
Properties=species:S:1:pos:R:3:forces:R:3 energy=0.19077228606112936 pbc="F F F"
Yb       0.00000000       0.00000000       0.00000000       0.00000000       0.00000000      -1.57161176
Yb       0.00000000       0.00000000       2.96060606       0.00000000       0.00000000       1.57161176
2
Properties=species:S:1:pos:R:3:forces:R:3 energy=0.10227836051762854 pbc="F F F"
Yb       0.00000000       0.00000000       0.00000000       0.00000000       0.00000000      -1.40196145
Yb       0.00000000       0.00000000       3.02020202       0.00000000       0.00000000       1.40196145
2
Properties=species:S:1:pos:R:3:forces:R:3 energy=0.023337332047609002 pbc="F F F"
Yb       0.00000000       0.00000000       0.00000000       0.00000000       0.00000000      -1.24944043
Yb       0.00000000       0.00000000       3.07979798       0.00000000       0.00000000       1.24944043
2
Properties=species:S:1:pos:R:3:forces:R:3 energy=-0.04693219747760581 pbc="F F F"
Yb       0.00000000       0.00000000       0.00000000       0.00000000       0.00000000      -1.11147773
Yb       0.00000000       0.00000000       3.13939394       0.00000000       0.00000000       1.11147773
2
Properties=species:S:1:pos:R:3:forces:R:3 energy=-0.10947835171061947 pbc="F F F"
Yb       0.00000000       0.00000000       0.00000000       0.00000000       0.00000000      -0.99031806
Yb       0.00000000       0.00000000       3.19898990       0.00000000       0.00000000       0.99031806
2
Properties=species:S:1:pos:R:3:forces:R:3 energy=-0.1652767144542381 pbc="F F F"
Yb       0.00000000       0.00000000       0.00000000       0.00000000       0.00000000      -0.88444984
Yb       0.00000000       0.00000000       3.25858586       0.00000000       0.00000000       0.88444984
2
Properties=species:S:1:pos:R:3:forces:R:3 energy=-0.21510393971727704 pbc="F F F"
Yb       0.00000000       0.00000000       0.00000000       0.00000000       0.00000000      -0.78904063
Yb       0.00000000       0.00000000       3.31818182       0.00000000       0.00000000       0.78904063
2
Properties=species:S:1:pos:R:3:forces:R:3 energy=-0.2594518766765741 pbc="F F F"
Yb       0.00000000       0.00000000       0.00000000       0.00000000       0.00000000      -0.70022517
Yb       0.00000000       0.00000000       3.37777778       0.00000000       0.00000000       0.70022517
2
Properties=species:S:1:pos:R:3:forces:R:3 energy=-0.2986663292900268 pbc="F F F"
Yb       0.00000000       0.00000000       0.00000000       0.00000000       0.00000000      -0.61659288
Yb       0.00000000       0.00000000       3.43737374       0.00000000       0.00000000       0.61659288
2
Properties=species:S:1:pos:R:3:forces:R:3 energy=-0.3330276797901942 pbc="F F F"
Yb       0.00000000       0.00000000       0.00000000       0.00000000       0.00000000      -0.53705257
Yb       0.00000000       0.00000000       3.49696970       0.00000000       0.00000000       0.53705257
2
Properties=species:S:1:pos:R:3:forces:R:3 energy=-0.3627280068363479 pbc="F F F"
Yb       0.00000000       0.00000000       0.00000000       0.00000000       0.00000000      -0.46005878
Yb       0.00000000       0.00000000       3.55656566       0.00000000       0.00000000       0.46005878
2
Properties=species:S:1:pos:R:3:forces:R:3 energy=-0.38789545489469435 pbc="F F F"
Yb       0.00000000       0.00000000       0.00000000       0.00000000       0.00000000      -0.38480216
Yb       0.00000000       0.00000000       3.61616162       0.00000000       0.00000000       0.38480216
2
Properties=species:S:1:pos:R:3:forces:R:3 energy=-0.40863668541674364 pbc="F F F"
Yb       0.00000000       0.00000000       0.00000000       0.00000000       0.00000000      -0.31170443
Yb       0.00000000       0.00000000       3.67575758       0.00000000       0.00000000       0.31170443
2
Properties=species:S:1:pos:R:3:forces:R:3 energy=-0.4251103604468273 pbc="F F F"
Yb       0.00000000       0.00000000       0.00000000       0.00000000       0.00000000      -0.24175124
Yb       0.00000000       0.00000000       3.73535354       0.00000000       0.00000000       0.24175124
2
Properties=species:S:1:pos:R:3:forces:R:3 energy=-0.43753180962337146 pbc="F F F"
Yb       0.00000000       0.00000000       0.00000000       0.00000000       0.00000000      -0.17575762
Yb       0.00000000       0.00000000       3.79494949       0.00000000       0.00000000       0.17575762
2
Properties=species:S:1:pos:R:3:forces:R:3 energy=-0.4461455066722512 pbc="F F F"
Yb       0.00000000       0.00000000       0.00000000       0.00000000       0.00000000      -0.11412244
Yb       0.00000000       0.00000000       3.85454545       0.00000000       0.00000000       0.11412244
2
Properties=species:S:1:pos:R:3:forces:R:3 energy=-0.45122210067788854 pbc="F F F"
Yb       0.00000000       0.00000000       0.00000000       0.00000000       0.00000000      -0.05694837
Yb       0.00000000       0.00000000       3.91414141       0.00000000       0.00000000       0.05694837
2
Properties=species:S:1:pos:R:3:forces:R:3 energy=-0.4530227039815413 pbc="F F F"
Yb       0.00000000       0.00000000       0.00000000       0.00000000       0.00000000      -0.00423623
Yb       0.00000000       0.00000000       3.97373737       0.00000000       0.00000000       0.00423623
2
Properties=species:S:1:pos:R:3:forces:R:3 energy=-0.45181713237055676 pbc="F F F"
Yb       0.00000000       0.00000000       0.00000000       0.00000000       0.00000000       0.04400862
Yb       0.00000000       0.00000000       4.03333333       0.00000000       0.00000000      -0.04400862
2
Properties=species:S:1:pos:R:3:forces:R:3 energy=-0.447866224089652 pbc="F F F"
Yb       0.00000000       0.00000000       0.00000000       0.00000000       0.00000000       0.08775796
Yb       0.00000000       0.00000000       4.09292929       0.00000000       0.00000000      -0.08775796
2
Properties=species:S:1:pos:R:3:forces:R:3 energy=-0.4414452745537534 pbc="F F F"
Yb       0.00000000       0.00000000       0.00000000       0.00000000       0.00000000       0.12695277
Yb       0.00000000       0.00000000       4.15252525       0.00000000       0.00000000      -0.12695277
2
Properties=species:S:1:pos:R:3:forces:R:3 energy=-0.4328283323999973 pbc="F F F"
Yb       0.00000000       0.00000000       0.00000000       0.00000000       0.00000000       0.16149822
Yb       0.00000000       0.00000000       4.21212121       0.00000000       0.00000000      -0.16149822
2
Properties=species:S:1:pos:R:3:forces:R:3 energy=-0.42229107318196774 pbc="F F F"
Yb       0.00000000       0.00000000       0.00000000       0.00000000       0.00000000       0.19129238
Yb       0.00000000       0.00000000       4.27171717       0.00000000       0.00000000      -0.19129238
2
Properties=species:S:1:pos:R:3:forces:R:3 energy=-0.4101228660184706 pbc="F F F"
Yb       0.00000000       0.00000000       0.00000000       0.00000000       0.00000000       0.21628641
Yb       0.00000000       0.00000000       4.33131313       0.00000000       0.00000000      -0.21628641
2
Properties=species:S:1:pos:R:3:forces:R:3 energy=-0.3966061808967104 pbc="F F F"
Yb       0.00000000       0.00000000       0.00000000       0.00000000       0.00000000       0.23655155
Yb       0.00000000       0.00000000       4.39090909       0.00000000       0.00000000      -0.23655155
2
Properties=species:S:1:pos:R:3:forces:R:3 energy=-0.3820157680465043 pbc="F F F"
Yb       0.00000000       0.00000000       0.00000000       0.00000000       0.00000000       0.25229543
Yb       0.00000000       0.00000000       4.45050505       0.00000000       0.00000000      -0.25229543
2
Properties=species:S:1:pos:R:3:forces:R:3 energy=-0.36661682028373643 pbc="F F F"
Yb       0.00000000       0.00000000       0.00000000       0.00000000       0.00000000       0.26382142
Yb       0.00000000       0.00000000       4.51010101       0.00000000       0.00000000      -0.26382142
2
Properties=species:S:1:pos:R:3:forces:R:3 energy=-0.35064865917667054 pbc="F F F"
Yb       0.00000000       0.00000000       0.00000000       0.00000000       0.00000000       0.27147901
Yb       0.00000000       0.00000000       4.56969697       0.00000000       0.00000000      -0.27147901
2
Properties=species:S:1:pos:R:3:forces:R:3 energy=-0.334327836823382 pbc="F F F"
Yb       0.00000000       0.00000000       0.00000000       0.00000000       0.00000000       0.27561924
Yb       0.00000000       0.00000000       4.62929293       0.00000000       0.00000000      -0.27561924
2
Properties=species:S:1:pos:R:3:forces:R:3 energy=-0.31785990472525016 pbc="F F F"
Yb       0.00000000       0.00000000       0.00000000       0.00000000       0.00000000       0.27662450
Yb       0.00000000       0.00000000       4.68888889       0.00000000       0.00000000      -0.27662450
2
Properties=species:S:1:pos:R:3:forces:R:3 energy=-0.3014109809555062 pbc="F F F"
Yb       0.00000000       0.00000000       0.00000000       0.00000000       0.00000000       0.27495080
Yb       0.00000000       0.00000000       4.74848485       0.00000000       0.00000000      -0.27495080
2
Properties=species:S:1:pos:R:3:forces:R:3 energy=-0.2851304989586526 pbc="F F F"
Yb       0.00000000       0.00000000       0.00000000       0.00000000       0.00000000       0.27116075
Yb       0.00000000       0.00000000       4.80808081       0.00000000       0.00000000      -0.27116075
2
Properties=species:S:1:pos:R:3:forces:R:3 energy=-0.26912036519064275 pbc="F F F"
Yb       0.00000000       0.00000000       0.00000000       0.00000000       0.00000000       0.26589888
Yb       0.00000000       0.00000000       4.86767677       0.00000000       0.00000000      -0.26589888
2
Properties=species:S:1:pos:R:3:forces:R:3 energy=-0.2534530282457387 pbc="F F F"
Yb       0.00000000       0.00000000       0.00000000       0.00000000       0.00000000       0.25977892
Yb       0.00000000       0.00000000       4.92727273       0.00000000       0.00000000      -0.25977892
2
Properties=species:S:1:pos:R:3:forces:R:3 energy=-0.23816568711852498 pbc="F F F"
Yb       0.00000000       0.00000000       0.00000000       0.00000000       0.00000000       0.25324512
Yb       0.00000000       0.00000000       4.98686869       0.00000000       0.00000000      -0.25324512
2
Properties=species:S:1:pos:R:3:forces:R:3 energy=-0.22327466601074236 pbc="F F F"
Yb       0.00000000       0.00000000       0.00000000       0.00000000       0.00000000       0.24644287
Yb       0.00000000       0.00000000       5.04646465       0.00000000       0.00000000      -0.24644287
2
Properties=species:S:1:pos:R:3:forces:R:3 energy=-0.20880150099081435 pbc="F F F"
Yb       0.00000000       0.00000000       0.00000000       0.00000000       0.00000000       0.23915070
Yb       0.00000000       0.00000000       5.10606061       0.00000000       0.00000000      -0.23915070
2
Properties=species:S:1:pos:R:3:forces:R:3 energy=-0.19478871363393363 pbc="F F F"
Yb       0.00000000       0.00000000       0.00000000       0.00000000       0.00000000       0.23080856
Yb       0.00000000       0.00000000       5.16565657       0.00000000       0.00000000      -0.23080856
2
Properties=species:S:1:pos:R:3:forces:R:3 energy=-0.18132543985136346 pbc="F F F"
Yb       0.00000000       0.00000000       0.00000000       0.00000000       0.00000000       0.22069055
Yb       0.00000000       0.00000000       5.22525253       0.00000000       0.00000000      -0.22069055
2
Properties=species:S:1:pos:R:3:forces:R:3 energy=-0.16853497510352575 pbc="F F F"
Yb       0.00000000       0.00000000       0.00000000       0.00000000       0.00000000       0.20806831
Yb       0.00000000       0.00000000       5.28484848       0.00000000       0.00000000      -0.20806831
2
Properties=species:S:1:pos:R:3:forces:R:3 energy=-0.15658424778672209 pbc="F F F"
Yb       0.00000000       0.00000000       0.00000000       0.00000000       0.00000000       0.19247223
Yb       0.00000000       0.00000000       5.34444444       0.00000000       0.00000000      -0.19247223
2
Properties=species:S:1:pos:R:3:forces:R:3 energy=-0.14565417296594943 pbc="F F F"
Yb       0.00000000       0.00000000       0.00000000       0.00000000       0.00000000       0.17384428
Yb       0.00000000       0.00000000       5.40404040       0.00000000       0.00000000      -0.17384428
2
Properties=species:S:1:pos:R:3:forces:R:3 energy=-0.13591284178808755 pbc="F F F"
Yb       0.00000000       0.00000000       0.00000000       0.00000000       0.00000000       0.15265809
Yb       0.00000000       0.00000000       5.46363636       0.00000000       0.00000000      -0.15265809
2
Properties=species:S:1:pos:R:3:forces:R:3 energy=-0.12749255727057382 pbc="F F F"
Yb       0.00000000       0.00000000       0.00000000       0.00000000       0.00000000       0.12989034
Yb       0.00000000       0.00000000       5.52323232       0.00000000       0.00000000      -0.12989034
2
Properties=species:S:1:pos:R:3:forces:R:3 energy=-0.12043687369862119 pbc="F F F"
Yb       0.00000000       0.00000000       0.00000000       0.00000000       0.00000000       0.10689391
Yb       0.00000000       0.00000000       5.58282828       0.00000000       0.00000000      -0.10689391
2
Properties=species:S:1:pos:R:3:forces:R:3 energy=-0.11472373989841972 pbc="F F F"
Yb       0.00000000       0.00000000       0.00000000       0.00000000       0.00000000       0.08521274
Yb       0.00000000       0.00000000       5.64242424       0.00000000       0.00000000      -0.08521274
2
Properties=species:S:1:pos:R:3:forces:R:3 energy=-0.1102264904570063 pbc="F F F"
Yb       0.00000000       0.00000000       0.00000000       0.00000000       0.00000000       0.06628220
Yb       0.00000000       0.00000000       5.70202020       0.00000000       0.00000000      -0.06628220
2
Properties=species:S:1:pos:R:3:forces:R:3 energy=-0.10674757127978893 pbc="F F F"
Yb       0.00000000       0.00000000       0.00000000       0.00000000       0.00000000       0.05123736
Yb       0.00000000       0.00000000       5.76161616       0.00000000       0.00000000      -0.05123736
2
Properties=species:S:1:pos:R:3:forces:R:3 energy=-0.10403224749089304 pbc="F F F"
Yb       0.00000000       0.00000000       0.00000000       0.00000000       0.00000000       0.04059945
Yb       0.00000000       0.00000000       5.82121212       0.00000000       0.00000000      -0.04059945
2
Properties=species:S:1:pos:R:3:forces:R:3 energy=-0.10182066104678145 pbc="F F F"
Yb       0.00000000       0.00000000       0.00000000       0.00000000       0.00000000       0.03424328
Yb       0.00000000       0.00000000       5.88080808       0.00000000       0.00000000      -0.03424328
2
Properties=species:S:1:pos:R:3:forces:R:3 energy=-0.09988152461555726 pbc="F F F"
Yb       0.00000000       0.00000000       0.00000000       0.00000000       0.00000000       0.03127880
Yb       0.00000000       0.00000000       5.94040404       0.00000000       0.00000000      -0.03127880
2
Properties=species:S:1:pos:R:3:forces:R:3 energy=-0.09805512245240011 pbc="F F F"
Yb       0.00000000       0.00000000       0.00000000       0.00000000       0.00000000       0.03022114
Yb       0.00000000       0.00000000       6.00000000       0.00000000       0.00000000      -0.03022114
