2
Properties=species:S:1:pos:R:3:forces:R:3 energy=1967.2007540780337 pbc="F F F"
Ar       0.00000000       0.00000000       0.00000000       0.00000000       0.00000000  -29324.13867188
Ar       0.00000000       0.00000000       0.18000000       0.00000000       0.00000000   29324.13867188
2
Properties=species:S:1:pos:R:3:forces:R:3 energy=883.8217257577212 pbc="F F F"
Ar       0.00000000       0.00000000       0.00000000       0.00000000       0.00000000  -11054.65820312
Ar       0.00000000       0.00000000       0.23878788       0.00000000       0.00000000   11054.65820312
2
Properties=species:S:1:pos:R:3:forces:R:3 energy=444.44788542885783 pbc="F F F"
Ar       0.00000000       0.00000000       0.00000000       0.00000000       0.00000000   -4882.35595703
Ar       0.00000000       0.00000000       0.29757576       0.00000000       0.00000000    4882.35595703
2
Properties=species:S:1:pos:R:3:forces:R:3 energy=240.603555602793 pbc="F F F"
Ar       0.00000000       0.00000000       0.00000000       0.00000000       0.00000000   -2394.79174805
Ar       0.00000000       0.00000000       0.35636364       0.00000000       0.00000000    2394.79174805
2
Properties=species:S:1:pos:R:3:forces:R:3 energy=137.15729707529414 pbc="F F F"
Ar       0.00000000       0.00000000       0.00000000       0.00000000       0.00000000   -1262.11560059
Ar       0.00000000       0.00000000       0.41515152       0.00000000       0.00000000    1262.11560059
2
Properties=species:S:1:pos:R:3:forces:R:3 energy=81.2932147737144 pbc="F F F"
Ar       0.00000000       0.00000000       0.00000000       0.00000000       0.00000000    -700.22882080
Ar       0.00000000       0.00000000       0.47393939       0.00000000       0.00000000     700.22882080
2
Properties=species:S:1:pos:R:3:forces:R:3 energy=49.72339443776984 pbc="F F F"
Ar       0.00000000       0.00000000       0.00000000       0.00000000       0.00000000    -403.91137695
Ar       0.00000000       0.00000000       0.53272727       0.00000000       0.00000000     403.91137695
2
Properties=species:S:1:pos:R:3:forces:R:3 energy=31.242000740892344 pbc="F F F"
Ar       0.00000000       0.00000000       0.00000000       0.00000000       0.00000000    -240.40876770
Ar       0.00000000       0.00000000       0.59151515       0.00000000       0.00000000     240.40876770
2
Properties=species:S:1:pos:R:3:forces:R:3 energy=20.103470202928325 pbc="F F F"
Ar       0.00000000       0.00000000       0.00000000       0.00000000       0.00000000    -146.94963074
Ar       0.00000000       0.00000000       0.65030303       0.00000000       0.00000000     146.94963074
2
Properties=species:S:1:pos:R:3:forces:R:3 energy=13.21971100844306 pbc="F F F"
Ar       0.00000000       0.00000000       0.00000000       0.00000000       0.00000000     -91.95416260
Ar       0.00000000       0.00000000       0.70909091       0.00000000       0.00000000      91.95416260
2
Properties=species:S:1:pos:R:3:forces:R:3 energy=8.86898343913977 pbc="F F F"
Ar       0.00000000       0.00000000       0.00000000       0.00000000       0.00000000     -58.77769089
Ar       0.00000000       0.00000000       0.76787879       0.00000000       0.00000000      58.77769089
2
Properties=species:S:1:pos:R:3:forces:R:3 energy=6.062170880170263 pbc="F F F"
Ar       0.00000000       0.00000000       0.00000000       0.00000000       0.00000000     -38.31685638
Ar       0.00000000       0.00000000       0.82666667       0.00000000       0.00000000      38.31685638
2
Properties=species:S:1:pos:R:3:forces:R:3 energy=4.21660034108297 pbc="F F F"
Ar       0.00000000       0.00000000       0.00000000       0.00000000       0.00000000     -25.43947029
Ar       0.00000000       0.00000000       0.88545455       0.00000000       0.00000000      25.43947029
2
Properties=species:S:1:pos:R:3:forces:R:3 energy=2.981289966152671 pbc="F F F"
Ar       0.00000000       0.00000000       0.00000000       0.00000000       0.00000000     -17.18461800
Ar       0.00000000       0.00000000       0.94424242       0.00000000       0.00000000      17.18461800
2
Properties=species:S:1:pos:R:3:forces:R:3 energy=2.1400929266354134 pbc="F F F"
Ar       0.00000000       0.00000000       0.00000000       0.00000000       0.00000000     -11.80972958
Ar       0.00000000       0.00000000       1.00303030       0.00000000       0.00000000      11.80972958
2
Properties=species:S:1:pos:R:3:forces:R:3 energy=1.5574165484069136 pbc="F F F"
Ar       0.00000000       0.00000000       0.00000000       0.00000000       0.00000000      -8.25064087
Ar       0.00000000       0.00000000       1.06181818       0.00000000       0.00000000       8.25064087
2
Properties=species:S:1:pos:R:3:forces:R:3 energy=1.147718686076161 pbc="F F F"
Ar       0.00000000       0.00000000       0.00000000       0.00000000       0.00000000      -5.83822918
Ar       0.00000000       0.00000000       1.12060606       0.00000000       0.00000000       5.83822918
2
Properties=species:S:1:pos:R:3:forces:R:3 energy=0.8565569030162441 pbc="F F F"
Ar       0.00000000       0.00000000       0.00000000       0.00000000       0.00000000      -4.16736841
Ar       0.00000000       0.00000000       1.17939394       0.00000000       0.00000000       4.16736841
2
Properties=species:S:1:pos:R:3:forces:R:3 energy=0.6479618846036856 pbc="F F F"
Ar       0.00000000       0.00000000       0.00000000       0.00000000       0.00000000      -2.99809980
Ar       0.00000000       0.00000000       1.23818182       0.00000000       0.00000000       2.99809980
2
Properties=species:S:1:pos:R:3:forces:R:3 energy=0.4972351331417645 pbc="F F F"
Ar       0.00000000       0.00000000       0.00000000       0.00000000       0.00000000      -2.17844677
Ar       0.00000000       0.00000000       1.29696970       0.00000000       0.00000000       2.17844677
2
Properties=species:S:1:pos:R:3:forces:R:3 energy=0.38697397311424525 pbc="F F F"
Ar       0.00000000       0.00000000       0.00000000       0.00000000       0.00000000      -1.60742664
Ar       0.00000000       0.00000000       1.35575758       0.00000000       0.00000000       1.60742664
2
Properties=species:S:1:pos:R:3:forces:R:3 energy=0.304820011071565 pbc="F F F"
Ar       0.00000000       0.00000000       0.00000000       0.00000000       0.00000000      -1.21145701
Ar       0.00000000       0.00000000       1.41454545       0.00000000       0.00000000       1.21145701
2
Properties=species:S:1:pos:R:3:forces:R:3 energy=0.24222981329901908 pbc="F F F"
Ar       0.00000000       0.00000000       0.00000000       0.00000000       0.00000000      -0.93375593
Ar       0.00000000       0.00000000       1.47333333       0.00000000       0.00000000       0.93375593
2
Properties=species:S:1:pos:R:3:forces:R:3 energy=0.19350780649206875 pbc="F F F"
Ar       0.00000000       0.00000000       0.00000000       0.00000000       0.00000000      -0.73438352
Ar       0.00000000       0.00000000       1.53212121       0.00000000       0.00000000       0.73438352
2
Properties=species:S:1:pos:R:3:forces:R:3 energy=0.1548529217620147 pbc="F F F"
Ar       0.00000000       0.00000000       0.00000000       0.00000000       0.00000000      -0.58790326
Ar       0.00000000       0.00000000       1.59090909       0.00000000       0.00000000       0.58790326
2
Properties=species:S:1:pos:R:3:forces:R:3 energy=0.12368309390483442 pbc="F F F"
Ar       0.00000000       0.00000000       0.00000000       0.00000000       0.00000000      -0.47738442
Ar       0.00000000       0.00000000       1.64969697       0.00000000       0.00000000       0.47738442
2
Properties=species:S:1:pos:R:3:forces:R:3 energy=0.09825458002923883 pbc="F F F"
Ar       0.00000000       0.00000000       0.00000000       0.00000000       0.00000000      -0.39096996
Ar       0.00000000       0.00000000       1.70848485       0.00000000       0.00000000       0.39096996
2
Properties=species:S:1:pos:R:3:forces:R:3 energy=0.07739491772281626 pbc="F F F"
Ar       0.00000000       0.00000000       0.00000000       0.00000000       0.00000000      -0.32098424
Ar       0.00000000       0.00000000       1.76727273       0.00000000       0.00000000       0.32098424
2
Properties=species:S:1:pos:R:3:forces:R:3 energy=0.06027614809360711 pbc="F F F"
Ar       0.00000000       0.00000000       0.00000000       0.00000000       0.00000000      -0.26323038
Ar       0.00000000       0.00000000       1.82606061       0.00000000       0.00000000       0.26323038
2
Properties=species:S:1:pos:R:3:forces:R:3 energy=0.04624681737995688 pbc="F F F"
Ar       0.00000000       0.00000000       0.00000000       0.00000000       0.00000000      -0.21564153
Ar       0.00000000       0.00000000       1.88484848       0.00000000       0.00000000       0.21564153
2
Properties=species:S:1:pos:R:3:forces:R:3 energy=0.034746443639302085 pbc="F F F"
Ar       0.00000000       0.00000000       0.00000000       0.00000000       0.00000000      -0.17701353
Ar       0.00000000       0.00000000       1.94363636       0.00000000       0.00000000       0.17701353
2
Properties=species:S:1:pos:R:3:forces:R:3 energy=0.025278063119568366 pbc="F F F"
Ar       0.00000000       0.00000000       0.00000000       0.00000000       0.00000000      -0.14636062
Ar       0.00000000       0.00000000       2.00242424       0.00000000       0.00000000       0.14636062
2
Properties=species:S:1:pos:R:3:forces:R:3 energy=0.017400301080517516 pbc="F F F"
Ar       0.00000000       0.00000000       0.00000000       0.00000000       0.00000000      -0.12273798
Ar       0.00000000       0.00000000       2.06121212       0.00000000       0.00000000       0.12273798
2
Properties=species:S:1:pos:R:3:forces:R:3 energy=0.010727624644513045 pbc="F F F"
Ar       0.00000000       0.00000000       0.00000000       0.00000000       0.00000000      -0.10520925
Ar       0.00000000       0.00000000       2.12000000       0.00000000       0.00000000       0.10520925
2
Properties=species:S:1:pos:R:3:forces:R:3 energy=0.004936057568824741 pbc="F F F"
Ar       0.00000000       0.00000000       0.00000000       0.00000000       0.00000000      -0.09250294
Ar       0.00000000       0.00000000       2.17878788       0.00000000       0.00000000       0.09250294
2
Properties=species:S:1:pos:R:3:forces:R:3 energy=-0.00022236515903849632 pbc="F F F"
Ar       0.00000000       0.00000000       0.00000000       0.00000000       0.00000000      -0.08355768
Ar       0.00000000       0.00000000       2.23757576       0.00000000       0.00000000       0.08355768
2
Properties=species:S:1:pos:R:3:forces:R:3 energy=-0.004946856765860222 pbc="F F F"
Ar       0.00000000       0.00000000       0.00000000       0.00000000       0.00000000      -0.07759818
Ar       0.00000000       0.00000000       2.29636364       0.00000000       0.00000000       0.07759818
2
Properties=species:S:1:pos:R:3:forces:R:3 energy=-0.009387700639744895 pbc="F F F"
Ar       0.00000000       0.00000000       0.00000000       0.00000000       0.00000000      -0.07376602
Ar       0.00000000       0.00000000       2.35515152       0.00000000       0.00000000       0.07376602
2
Properties=species:S:1:pos:R:3:forces:R:3 energy=-0.013645337165019995 pbc="F F F"
Ar       0.00000000       0.00000000       0.00000000       0.00000000       0.00000000      -0.07123521
Ar       0.00000000       0.00000000       2.41393939       0.00000000       0.00000000       0.07123521
2
Properties=species:S:1:pos:R:3:forces:R:3 energy=-0.017774851228135838 pbc="F F F"
Ar       0.00000000       0.00000000       0.00000000       0.00000000       0.00000000      -0.06930371
Ar       0.00000000       0.00000000       2.47272727       0.00000000       0.00000000       0.06930371
2
Properties=species:S:1:pos:R:3:forces:R:3 energy=-0.021795122849069568 pbc="F F F"
Ar       0.00000000       0.00000000       0.00000000       0.00000000       0.00000000      -0.06744725
Ar       0.00000000       0.00000000       2.53151515       0.00000000       0.00000000       0.06744725
2
Properties=species:S:1:pos:R:3:forces:R:3 energy=-0.025699808691163468 pbc="F F F"
Ar       0.00000000       0.00000000       0.00000000       0.00000000       0.00000000      -0.06532919
Ar       0.00000000       0.00000000       2.59030303       0.00000000       0.00000000       0.06532919
2
Properties=species:S:1:pos:R:3:forces:R:3 energy=-0.029467606757822815 pbc="F F F"
Ar       0.00000000       0.00000000       0.00000000       0.00000000       0.00000000      -0.06277337
Ar       0.00000000       0.00000000       2.64909091       0.00000000       0.00000000       0.06277337
2
Properties=species:S:1:pos:R:3:forces:R:3 energy=-0.03307055607382073 pbc="F F F"
Ar       0.00000000       0.00000000       0.00000000       0.00000000       0.00000000      -0.05971622
Ar       0.00000000       0.00000000       2.70787879       0.00000000       0.00000000       0.05971622
2
Properties=species:S:1:pos:R:3:forces:R:3 energy=-0.03647898510075207 pbc="F F F"
Ar       0.00000000       0.00000000       0.00000000       0.00000000       0.00000000      -0.05616075
Ar       0.00000000       0.00000000       2.76666667       0.00000000       0.00000000       0.05616075
2
Properties=species:S:1:pos:R:3:forces:R:3 energy=-0.03966477288797021 pbc="F F F"
Ar       0.00000000       0.00000000       0.00000000       0.00000000       0.00000000      -0.05215048
Ar       0.00000000       0.00000000       2.82545455       0.00000000       0.00000000       0.05215048
2
Properties=species:S:1:pos:R:3:forces:R:3 energy=-0.042603246754020566 pbc="F F F"
Ar       0.00000000       0.00000000       0.00000000       0.00000000       0.00000000      -0.04776270
Ar       0.00000000       0.00000000       2.88424242       0.00000000       0.00000000       0.04776270
2
Properties=species:S:1:pos:R:3:forces:R:3 energy=-0.04527532360736124 pbc="F F F"
Ar       0.00000000       0.00000000       0.00000000       0.00000000       0.00000000      -0.04310866
Ar       0.00000000       0.00000000       2.94303030       0.00000000       0.00000000       0.04310866
2
Properties=species:S:1:pos:R:3:forces:R:3 energy=-0.04766923542824064 pbc="F F F"
Ar       0.00000000       0.00000000       0.00000000       0.00000000       0.00000000      -0.03832715
Ar       0.00000000       0.00000000       3.00181818       0.00000000       0.00000000       0.03832715
2
Properties=species:S:1:pos:R:3:forces:R:3 energy=-0.049782039798674085 pbc="F F F"
Ar       0.00000000       0.00000000       0.00000000       0.00000000       0.00000000      -0.03356687
Ar       0.00000000       0.00000000       3.06060606       0.00000000       0.00000000       0.03356687
2
Properties=species:S:1:pos:R:3:forces:R:3 energy=-0.051619012224404286 pbc="F F F"
Ar       0.00000000       0.00000000       0.00000000       0.00000000       0.00000000      -0.02896563
Ar       0.00000000       0.00000000       3.11939394       0.00000000       0.00000000       0.02896563
2
Properties=species:S:1:pos:R:3:forces:R:3 energy=-0.05319298108208972 pbc="F F F"
Ar       0.00000000       0.00000000       0.00000000       0.00000000       0.00000000      -0.02463349
Ar       0.00000000       0.00000000       3.17818182       0.00000000       0.00000000       0.02463349
2
Properties=species:S:1:pos:R:3:forces:R:3 energy=-0.05452210315202167 pbc="F F F"
Ar       0.00000000       0.00000000       0.00000000       0.00000000       0.00000000      -0.02064622
Ar       0.00000000       0.00000000       3.23696970       0.00000000       0.00000000       0.02064622
2
Properties=species:S:1:pos:R:3:forces:R:3 energy=-0.0556280906454223 pbc="F F F"
Ar       0.00000000       0.00000000       0.00000000       0.00000000       0.00000000      -0.01704630
Ar       0.00000000       0.00000000       3.29575758       0.00000000       0.00000000       0.01704630
2
Properties=species:S:1:pos:R:3:forces:R:3 energy=-0.05653424674651977 pbc="F F F"
Ar       0.00000000       0.00000000       0.00000000       0.00000000       0.00000000      -0.01384904
Ar       0.00000000       0.00000000       3.35454545       0.00000000       0.00000000       0.01384904
2
Properties=species:S:1:pos:R:3:forces:R:3 energy=-0.057264183325214935 pbc="F F F"
Ar       0.00000000       0.00000000       0.00000000       0.00000000       0.00000000      -0.01104879
Ar       0.00000000       0.00000000       3.41333333       0.00000000       0.00000000       0.01104879
2
Properties=species:S:1:pos:R:3:forces:R:3 energy=-0.05784068507751378 pbc="F F F"
Ar       0.00000000       0.00000000       0.00000000       0.00000000       0.00000000      -0.00862415
Ar       0.00000000       0.00000000       3.47212121       0.00000000       0.00000000       0.00862415
2
Properties=species:S:1:pos:R:3:forces:R:3 energy=-0.05828488160860926 pbc="F F F"
Ar       0.00000000       0.00000000       0.00000000       0.00000000       0.00000000      -0.00654186
Ar       0.00000000       0.00000000       3.53090909       0.00000000       0.00000000       0.00654186
2
Properties=species:S:1:pos:R:3:forces:R:3 energy=-0.058615721290985114 pbc="F F F"
Ar       0.00000000       0.00000000       0.00000000       0.00000000       0.00000000      -0.00475932
Ar       0.00000000       0.00000000       3.58969697       0.00000000       0.00000000       0.00475932
2
Properties=species:S:1:pos:R:3:forces:R:3 energy=-0.05884939948108667 pbc="F F F"
Ar       0.00000000       0.00000000       0.00000000       0.00000000       0.00000000      -0.00322827
Ar       0.00000000       0.00000000       3.64848485       0.00000000       0.00000000       0.00322827
2
Properties=species:S:1:pos:R:3:forces:R:3 energy=-0.058999225382297196 pbc="F F F"
Ar       0.00000000       0.00000000       0.00000000       0.00000000       0.00000000      -0.00189824
Ar       0.00000000       0.00000000       3.70727273       0.00000000       0.00000000       0.00189824
2
Properties=species:S:1:pos:R:3:forces:R:3 energy=-0.05907558224366642 pbc="F F F"
Ar       0.00000000       0.00000000       0.00000000       0.00000000       0.00000000      -0.00072072
Ar       0.00000000       0.00000000       3.76606061       0.00000000       0.00000000       0.00072072
2
Properties=species:S:1:pos:R:3:forces:R:3 energy=-0.05908611876112498 pbc="F F F"
Ar       0.00000000       0.00000000       0.00000000       0.00000000       0.00000000       0.00034664
Ar       0.00000000       0.00000000       3.82484848       0.00000000       0.00000000      -0.00034664
2
Properties=species:S:1:pos:R:3:forces:R:3 energy=-0.05903631403417152 pbc="F F F"
Ar       0.00000000       0.00000000       0.00000000       0.00000000       0.00000000       0.00133739
Ar       0.00000000       0.00000000       3.88363636       0.00000000       0.00000000      -0.00133739
2
Properties=species:S:1:pos:R:3:forces:R:3 energy=-0.05892992222484193 pbc="F F F"
Ar       0.00000000       0.00000000       0.00000000       0.00000000       0.00000000       0.00227461
Ar       0.00000000       0.00000000       3.94242424       0.00000000       0.00000000      -0.00227461
2
Properties=species:S:1:pos:R:3:forces:R:3 energy=-0.0587696448133603 pbc="F F F"
Ar       0.00000000       0.00000000       0.00000000       0.00000000       0.00000000       0.00317177
Ar       0.00000000       0.00000000       4.00121212       0.00000000       0.00000000      -0.00317177
2
Properties=species:S:1:pos:R:3:forces:R:3 energy=-0.05855765703650788 pbc="F F F"
Ar       0.00000000       0.00000000       0.00000000       0.00000000       0.00000000       0.00403468
Ar       0.00000000       0.00000000       4.06000000       0.00000000       0.00000000      -0.00403468
2
Properties=species:S:1:pos:R:3:forces:R:3 energy=-0.05829592785111462 pbc="F F F"
Ar       0.00000000       0.00000000       0.00000000       0.00000000       0.00000000       0.00486387
Ar       0.00000000       0.00000000       4.11878788       0.00000000       0.00000000      -0.00486387
2
Properties=species:S:1:pos:R:3:forces:R:3 energy=-0.057986497246953 pbc="F F F"
Ar       0.00000000       0.00000000       0.00000000       0.00000000       0.00000000       0.00565673
Ar       0.00000000       0.00000000       4.17757576       0.00000000       0.00000000      -0.00565673
2
Properties=species:S:1:pos:R:3:forces:R:3 energy=-0.05763165875496986 pbc="F F F"
Ar       0.00000000       0.00000000       0.00000000       0.00000000       0.00000000       0.00640771
Ar       0.00000000       0.00000000       4.23636364       0.00000000       0.00000000      -0.00640771
2
Properties=species:S:1:pos:R:3:forces:R:3 energy=-0.057234102003767946 pbc="F F F"
Ar       0.00000000       0.00000000       0.00000000       0.00000000       0.00000000       0.00710762
Ar       0.00000000       0.00000000       4.29515152       0.00000000       0.00000000      -0.00710762
2
Properties=species:S:1:pos:R:3:forces:R:3 energy=-0.056797231214187616 pbc="F F F"
Ar       0.00000000       0.00000000       0.00000000       0.00000000       0.00000000       0.00774286
Ar       0.00000000       0.00000000       4.35393939       0.00000000       0.00000000      -0.00774286
2
Properties=species:S:1:pos:R:3:forces:R:3 energy=-0.05632534210634932 pbc="F F F"
Ar       0.00000000       0.00000000       0.00000000       0.00000000       0.00000000       0.00829603
Ar       0.00000000       0.00000000       4.41272727       0.00000000       0.00000000      -0.00829603
2
Properties=species:S:1:pos:R:3:forces:R:3 energy=-0.055823800182627684 pbc="F F F"
Ar       0.00000000       0.00000000       0.00000000       0.00000000       0.00000000       0.00874815
Ar       0.00000000       0.00000000       4.47151515       0.00000000       0.00000000      -0.00874815
2
Properties=species:S:1:pos:R:3:forces:R:3 energy=-0.05529907571968913 pbc="F F F"
Ar       0.00000000       0.00000000       0.00000000       0.00000000       0.00000000       0.00908262
Ar       0.00000000       0.00000000       4.53030303       0.00000000       0.00000000      -0.00908262
2
Properties=species:S:1:pos:R:3:forces:R:3 energy=-0.05475841545847446 pbc="F F F"
Ar       0.00000000       0.00000000       0.00000000       0.00000000       0.00000000       0.00928936
Ar       0.00000000       0.00000000       4.58909091       0.00000000       0.00000000      -0.00928936
2
Properties=species:S:1:pos:R:3:forces:R:3 energy=-0.05420940678723821 pbc="F F F"
Ar       0.00000000       0.00000000       0.00000000       0.00000000       0.00000000       0.00936753
Ar       0.00000000       0.00000000       4.64787879       0.00000000       0.00000000      -0.00936753
2
Properties=species:S:1:pos:R:3:forces:R:3 energy=-0.05365938475893329 pbc="F F F"
Ar       0.00000000       0.00000000       0.00000000       0.00000000       0.00000000       0.00932539
Ar       0.00000000       0.00000000       4.70666667       0.00000000       0.00000000      -0.00932539
2
Properties=species:S:1:pos:R:3:forces:R:3 energy=-0.05311504433803916 pbc="F F F"
Ar       0.00000000       0.00000000       0.00000000       0.00000000       0.00000000       0.00917702
Ar       0.00000000       0.00000000       4.76545455       0.00000000       0.00000000      -0.00917702
2
Properties=species:S:1:pos:R:3:forces:R:3 energy=-0.05258216953831362 pbc="F F F"
Ar       0.00000000       0.00000000       0.00000000       0.00000000       0.00000000       0.00893718
Ar       0.00000000       0.00000000       4.82424242       0.00000000       0.00000000      -0.00893718
2
Properties=species:S:1:pos:R:3:forces:R:3 energy=-0.052065856690226966 pbc="F F F"
Ar       0.00000000       0.00000000       0.00000000       0.00000000       0.00000000       0.00861569
Ar       0.00000000       0.00000000       4.88303030       0.00000000       0.00000000      -0.00861569
2
Properties=species:S:1:pos:R:3:forces:R:3 energy=-0.0515707289238882 pbc="F F F"
Ar       0.00000000       0.00000000       0.00000000       0.00000000       0.00000000       0.00821499
Ar       0.00000000       0.00000000       4.94181818       0.00000000       0.00000000      -0.00821499
2
Properties=species:S:1:pos:R:3:forces:R:3 energy=-0.051101557323582576 pbc="F F F"
Ar       0.00000000       0.00000000       0.00000000       0.00000000       0.00000000       0.00773206
Ar       0.00000000       0.00000000       5.00060606       0.00000000       0.00000000      -0.00773206
2
Properties=species:S:1:pos:R:3:forces:R:3 energy=-0.05066325160679771 pbc="F F F"
Ar       0.00000000       0.00000000       0.00000000       0.00000000       0.00000000       0.00716588
Ar       0.00000000       0.00000000       5.05939394       0.00000000       0.00000000      -0.00716588
2
Properties=species:S:1:pos:R:3:forces:R:3 energy=-0.05026043065289779 pbc="F F F"
Ar       0.00000000       0.00000000       0.00000000       0.00000000       0.00000000       0.00652869
Ar       0.00000000       0.00000000       5.11818182       0.00000000       0.00000000      -0.00652869
2
Properties=species:S:1:pos:R:3:forces:R:3 energy=-0.0498963430703881 pbc="F F F"
Ar       0.00000000       0.00000000       0.00000000       0.00000000       0.00000000       0.00585727
Ar       0.00000000       0.00000000       5.17696970       0.00000000       0.00000000      -0.00585727
2
Properties=species:S:1:pos:R:3:forces:R:3 energy=-0.04957117611310835 pbc="F F F"
Ar       0.00000000       0.00000000       0.00000000       0.00000000       0.00000000       0.00521717
Ar       0.00000000       0.00000000       5.23575758       0.00000000       0.00000000      -0.00521717
2
Properties=species:S:1:pos:R:3:forces:R:3 energy=-0.049280918872725066 pbc="F F F"
Ar       0.00000000       0.00000000       0.00000000       0.00000000       0.00000000       0.00467768
Ar       0.00000000       0.00000000       5.29454545       0.00000000       0.00000000      -0.00467768
2
Properties=species:S:1:pos:R:3:forces:R:3 energy=-0.049019444356529086 pbc="F F F"
Ar       0.00000000       0.00000000       0.00000000       0.00000000       0.00000000       0.00421902
Ar       0.00000000       0.00000000       5.35333333       0.00000000       0.00000000      -0.00421902
2
Properties=species:S:1:pos:R:3:forces:R:3 energy=-0.04878742756142426 pbc="F F F"
Ar       0.00000000       0.00000000       0.00000000       0.00000000       0.00000000       0.00362758
Ar       0.00000000       0.00000000       5.41212121       0.00000000       0.00000000      -0.00362758
2
Properties=species:S:1:pos:R:3:forces:R:3 energy=-0.04859905986946591 pbc="F F F"
Ar       0.00000000       0.00000000       0.00000000       0.00000000       0.00000000       0.00274850
Ar       0.00000000       0.00000000       5.47090909       0.00000000       0.00000000      -0.00274850
2
Properties=species:S:1:pos:R:3:forces:R:3 energy=-0.04846190254243385 pbc="F F F"
Ar       0.00000000       0.00000000       0.00000000       0.00000000       0.00000000       0.00199152
Ar       0.00000000       0.00000000       5.52969697       0.00000000       0.00000000      -0.00199152
2
Properties=species:S:1:pos:R:3:forces:R:3 energy=-0.048353990754176186 pbc="F F F"
Ar       0.00000000       0.00000000       0.00000000       0.00000000       0.00000000       0.00175822
Ar       0.00000000       0.00000000       5.58848485       0.00000000       0.00000000      -0.00175822
2
Properties=species:S:1:pos:R:3:forces:R:3 energy=-0.04825173252414188 pbc="F F F"
Ar       0.00000000       0.00000000       0.00000000       0.00000000       0.00000000       0.00169253
Ar       0.00000000       0.00000000       5.64727273       0.00000000       0.00000000      -0.00169253
2
Properties=species:S:1:pos:R:3:forces:R:3 energy=-0.04816380357589284 pbc="F F F"
Ar       0.00000000       0.00000000       0.00000000       0.00000000       0.00000000       0.00120092
Ar       0.00000000       0.00000000       5.70606061       0.00000000       0.00000000      -0.00120092
2
Properties=species:S:1:pos:R:3:forces:R:3 energy=-0.04811847841675437 pbc="F F F"
Ar       0.00000000       0.00000000       0.00000000       0.00000000       0.00000000       0.00034298
Ar       0.00000000       0.00000000       5.76484848       0.00000000       0.00000000      -0.00034298
2
Properties=species:S:1:pos:R:3:forces:R:3 energy=-0.048114034297642515 pbc="F F F"
Ar       0.00000000       0.00000000       0.00000000       0.00000000       0.00000000      -0.00006233
Ar       0.00000000       0.00000000       5.82363636       0.00000000       0.00000000       0.00006233
2
Properties=species:S:1:pos:R:3:forces:R:3 energy=-0.0481104365526057 pbc="F F F"
Ar       0.00000000       0.00000000       0.00000000       0.00000000       0.00000000       0.00026940
Ar       0.00000000       0.00000000       5.88242424       0.00000000       0.00000000      -0.00026940
2
Properties=species:S:1:pos:R:3:forces:R:3 energy=-0.04807877050223793 pbc="F F F"
Ar       0.00000000       0.00000000       0.00000000       0.00000000       0.00000000       0.00079090
Ar       0.00000000       0.00000000       5.94121212       0.00000000       0.00000000      -0.00079090
2
Properties=species:S:1:pos:R:3:forces:R:3 energy=-0.04802446134959955 pbc="F F F"
Ar       0.00000000       0.00000000       0.00000000       0.00000000       0.00000000       0.00097438
Ar       0.00000000       0.00000000       6.00000000       0.00000000       0.00000000      -0.00097438
