2
Properties=species:S:1:pos:R:3:forces:R:3 energy=215.25461136717124 pbc="F F F"
Be       0.00000000       0.00000000       0.00000000       0.00000000       0.00000000   -2368.57080078
Be       0.00000000       0.00000000       0.18000000       0.00000000       0.00000000    2368.57080078
2
Properties=species:S:1:pos:R:3:forces:R:3 energy=122.70457016844075 pbc="F F F"
Be       0.00000000       0.00000000       0.00000000       0.00000000       0.00000000   -1013.58575439
Be       0.00000000       0.00000000       0.23878788       0.00000000       0.00000000    1013.58575439
2
Properties=species:S:1:pos:R:3:forces:R:3 energy=80.4436143610617 pbc="F F F"
Be       0.00000000       0.00000000       0.00000000       0.00000000       0.00000000    -498.57174683
Be       0.00000000       0.00000000       0.29757576       0.00000000       0.00000000     498.57174683
2
Properties=species:S:1:pos:R:3:forces:R:3 energy=58.59776247237181 pbc="F F F"
Be       0.00000000       0.00000000       0.00000000       0.00000000       0.00000000    -273.55551147
Be       0.00000000       0.00000000       0.35636364       0.00000000       0.00000000     273.55551147
2
Properties=species:S:1:pos:R:3:forces:R:3 energy=45.989726456454626 pbc="F F F"
Be       0.00000000       0.00000000       0.00000000       0.00000000       0.00000000    -168.43830872
Be       0.00000000       0.00000000       0.41515152       0.00000000       0.00000000     168.43830872
2
Properties=species:S:1:pos:R:3:forces:R:3 energy=37.70298333674164 pbc="F F F"
Be       0.00000000       0.00000000       0.00000000       0.00000000       0.00000000    -119.94116974
Be       0.00000000       0.00000000       0.47393939       0.00000000       0.00000000     119.94116974
2
Properties=species:S:1:pos:R:3:forces:R:3 energy=31.355470223420294 pbc="F F F"
Be       0.00000000       0.00000000       0.00000000       0.00000000       0.00000000     -98.93128967
Be       0.00000000       0.00000000       0.53272727       0.00000000       0.00000000      98.93128967
2
Properties=species:S:1:pos:R:3:forces:R:3 energy=25.88978357421223 pbc="F F F"
Be       0.00000000       0.00000000       0.00000000       0.00000000       0.00000000     -87.84204865
Be       0.00000000       0.00000000       0.59151515       0.00000000       0.00000000      87.84204865
2
Properties=species:S:1:pos:R:3:forces:R:3 energy=20.832117036402263 pbc="F F F"
Be       0.00000000       0.00000000       0.00000000       0.00000000       0.00000000     -85.16820526
Be       0.00000000       0.00000000       0.65030303       0.00000000       0.00000000      85.16820526
2
Properties=species:S:1:pos:R:3:forces:R:3 energy=16.059324606714455 pbc="F F F"
Be       0.00000000       0.00000000       0.00000000       0.00000000       0.00000000     -74.56467438
Be       0.00000000       0.00000000       0.70909091       0.00000000       0.00000000      74.56467438
2
Properties=species:S:1:pos:R:3:forces:R:3 energy=12.255757303241191 pbc="F F F"
Be       0.00000000       0.00000000       0.00000000       0.00000000       0.00000000     -54.34748077
Be       0.00000000       0.00000000       0.76787879       0.00000000       0.00000000      54.34748077
2
Properties=species:S:1:pos:R:3:forces:R:3 energy=9.718000294521481 pbc="F F F"
Be       0.00000000       0.00000000       0.00000000       0.00000000       0.00000000     -31.71412468
Be       0.00000000       0.00000000       0.82666667       0.00000000       0.00000000      31.71412468
2
Properties=species:S:1:pos:R:3:forces:R:3 energy=8.461973354618115 pbc="F F F"
Be       0.00000000       0.00000000       0.00000000       0.00000000       0.00000000     -12.12171268
Be       0.00000000       0.00000000       0.88545455       0.00000000       0.00000000      12.12171268
2
Properties=species:S:1:pos:R:3:forces:R:3 energy=8.072407712233725 pbc="F F F"
Be       0.00000000       0.00000000       0.00000000       0.00000000       0.00000000      -3.71222687
Be       0.00000000       0.00000000       0.94424242       0.00000000       0.00000000       3.71222687
2
Properties=species:S:1:pos:R:3:forces:R:3 energy=7.77947996191015 pbc="F F F"
Be       0.00000000       0.00000000       0.00000000       0.00000000       0.00000000      -7.33801603
Be       0.00000000       0.00000000       1.00303030       0.00000000       0.00000000       7.33801603
2
Properties=species:S:1:pos:R:3:forces:R:3 energy=7.1776717587495815 pbc="F F F"
Be       0.00000000       0.00000000       0.00000000       0.00000000       0.00000000     -12.92498493
Be       0.00000000       0.00000000       1.06181818       0.00000000       0.00000000      12.92498493
2
Properties=species:S:1:pos:R:3:forces:R:3 energy=6.307838735382235 pbc="F F F"
Be       0.00000000       0.00000000       0.00000000       0.00000000       0.00000000     -16.15832329
Be       0.00000000       0.00000000       1.12060606       0.00000000       0.00000000      16.15832329
2
Properties=species:S:1:pos:R:3:forces:R:3 energy=5.332718041101901 pbc="F F F"
Be       0.00000000       0.00000000       0.00000000       0.00000000       0.00000000     -16.66992378
Be       0.00000000       0.00000000       1.17939394       0.00000000       0.00000000      16.66992378
2
Properties=species:S:1:pos:R:3:forces:R:3 energy=4.37063379247097 pbc="F F F"
Be       0.00000000       0.00000000       0.00000000       0.00000000       0.00000000     -15.98639107
Be       0.00000000       0.00000000       1.23818182       0.00000000       0.00000000      15.98639107
2
Properties=species:S:1:pos:R:3:forces:R:3 energy=3.456507523069994 pbc="F F F"
Be       0.00000000       0.00000000       0.00000000       0.00000000       0.00000000     -15.08979130
Be       0.00000000       0.00000000       1.29696970       0.00000000       0.00000000      15.08979130
2
Properties=species:S:1:pos:R:3:forces:R:3 energy=2.60145759890345 pbc="F F F"
Be       0.00000000       0.00000000       0.00000000       0.00000000       0.00000000     -13.93875885
Be       0.00000000       0.00000000       1.35575758       0.00000000       0.00000000      13.93875885
2
Properties=species:S:1:pos:R:3:forces:R:3 energy=1.8251438982987485 pbc="F F F"
Be       0.00000000       0.00000000       0.00000000       0.00000000       0.00000000     -12.41627693
Be       0.00000000       0.00000000       1.41454545       0.00000000       0.00000000      12.41627693
2
Properties=species:S:1:pos:R:3:forces:R:3 energy=1.146076589342027 pbc="F F F"
Be       0.00000000       0.00000000       0.00000000       0.00000000       0.00000000     -10.66621685
Be       0.00000000       0.00000000       1.47333333       0.00000000       0.00000000      10.66621685
2
Properties=species:S:1:pos:R:3:forces:R:3 energy=0.5717926376875623 pbc="F F F"
Be       0.00000000       0.00000000       0.00000000       0.00000000       0.00000000      -8.87449265
Be       0.00000000       0.00000000       1.53212121       0.00000000       0.00000000       8.87449265
2
Properties=species:S:1:pos:R:3:forces:R:3 energy=0.10159190896692821 pbc="F F F"
Be       0.00000000       0.00000000       0.00000000       0.00000000       0.00000000      -7.13649273
Be       0.00000000       0.00000000       1.59090909       0.00000000       0.00000000       7.13649273
2
Properties=species:S:1:pos:R:3:forces:R:3 energy=-0.269787381066991 pbc="F F F"
Be       0.00000000       0.00000000       0.00000000       0.00000000       0.00000000      -5.52678490
Be       0.00000000       0.00000000       1.64969697       0.00000000       0.00000000       5.52678490
2
Properties=species:S:1:pos:R:3:forces:R:3 energy=-0.5524001492655599 pbc="F F F"
Be       0.00000000       0.00000000       0.00000000       0.00000000       0.00000000      -4.12879324
Be       0.00000000       0.00000000       1.70848485       0.00000000       0.00000000       4.12879324
2
Properties=species:S:1:pos:R:3:forces:R:3 energy=-0.7603261320458038 pbc="F F F"
Be       0.00000000       0.00000000       0.00000000       0.00000000       0.00000000      -2.98853874
Be       0.00000000       0.00000000       1.76727273       0.00000000       0.00000000       2.98853874
2
Properties=species:S:1:pos:R:3:forces:R:3 energy=-0.9086362185076089 pbc="F F F"
Be       0.00000000       0.00000000       0.00000000       0.00000000       0.00000000      -2.09486628
Be       0.00000000       0.00000000       1.82606061       0.00000000       0.00000000       2.09486628
2
Properties=species:S:1:pos:R:3:forces:R:3 energy=-1.0105559268335256 pbc="F F F"
Be       0.00000000       0.00000000       0.00000000       0.00000000       0.00000000      -1.40134645
Be       0.00000000       0.00000000       1.88484848       0.00000000       0.00000000       1.40134645
2
Properties=species:S:1:pos:R:3:forces:R:3 energy=-1.0762860229858306 pbc="F F F"
Be       0.00000000       0.00000000       0.00000000       0.00000000       0.00000000      -0.85547757
Be       0.00000000       0.00000000       1.94363636       0.00000000       0.00000000       0.85547757
2
Properties=species:S:1:pos:R:3:forces:R:3 energy=-1.1132084163325675 pbc="F F F"
Be       0.00000000       0.00000000       0.00000000       0.00000000       0.00000000      -0.41594249
Be       0.00000000       0.00000000       2.00242424       0.00000000       0.00000000       0.41594249
2
Properties=species:S:1:pos:R:3:forces:R:3 energy=-1.1268200465660243 pbc="F F F"
Be       0.00000000       0.00000000       0.00000000       0.00000000       0.00000000      -0.06001420
Be       0.00000000       0.00000000       2.06121212       0.00000000       0.00000000       0.06001420
2
Properties=species:S:1:pos:R:3:forces:R:3 energy=-1.1217140729586634 pbc="F F F"
Be       0.00000000       0.00000000       0.00000000       0.00000000       0.00000000       0.22180536
Be       0.00000000       0.00000000       2.12000000       0.00000000       0.00000000      -0.22180536
2
Properties=species:S:1:pos:R:3:forces:R:3 energy=-1.102121265824615 pbc="F F F"
Be       0.00000000       0.00000000       0.00000000       0.00000000       0.00000000       0.43322611
Be       0.00000000       0.00000000       2.17878788       0.00000000       0.00000000      -0.43322611
2
Properties=species:S:1:pos:R:3:forces:R:3 energy=-1.0720927817064991 pbc="F F F"
Be       0.00000000       0.00000000       0.00000000       0.00000000       0.00000000       0.57753909
Be       0.00000000       0.00000000       2.23757576       0.00000000       0.00000000      -0.57753909
2
Properties=species:S:1:pos:R:3:forces:R:3 energy=-1.0354360090274557 pbc="F F F"
Be       0.00000000       0.00000000       0.00000000       0.00000000       0.00000000       0.65968949
Be       0.00000000       0.00000000       2.29636364       0.00000000       0.00000000      -0.65968949
2
Properties=species:S:1:pos:R:3:forces:R:3 energy=-0.9956208485739723 pbc="F F F"
Be       0.00000000       0.00000000       0.00000000       0.00000000       0.00000000       0.68620634
Be       0.00000000       0.00000000       2.35515152       0.00000000       0.00000000      -0.68620634
2
Properties=species:S:1:pos:R:3:forces:R:3 energy=-0.9556512079766971 pbc="F F F"
Be       0.00000000       0.00000000       0.00000000       0.00000000       0.00000000       0.66742468
Be       0.00000000       0.00000000       2.41393939       0.00000000       0.00000000      -0.66742468
2
Properties=species:S:1:pos:R:3:forces:R:3 energy=-0.9175754909500254 pbc="F F F"
Be       0.00000000       0.00000000       0.00000000       0.00000000       0.00000000       0.62752682
Be       0.00000000       0.00000000       2.47272727       0.00000000       0.00000000      -0.62752682
2
Properties=species:S:1:pos:R:3:forces:R:3 energy=-0.881533292932118 pbc="F F F"
Be       0.00000000       0.00000000       0.00000000       0.00000000       0.00000000       0.60370696
Be       0.00000000       0.00000000       2.53151515       0.00000000       0.00000000      -0.60370696
2
Properties=species:S:1:pos:R:3:forces:R:3 energy=-0.8460367402091683 pbc="F F F"
Be       0.00000000       0.00000000       0.00000000       0.00000000       0.00000000       0.60699075
Be       0.00000000       0.00000000       2.59030303       0.00000000       0.00000000      -0.60699075
2
Properties=species:S:1:pos:R:3:forces:R:3 energy=-0.8100686978812806 pbc="F F F"
Be       0.00000000       0.00000000       0.00000000       0.00000000       0.00000000       0.61570948
Be       0.00000000       0.00000000       2.64909091       0.00000000       0.00000000      -0.61570948
2
Properties=species:S:1:pos:R:3:forces:R:3 energy=-0.7738431255428428 pbc="F F F"
Be       0.00000000       0.00000000       0.00000000       0.00000000       0.00000000       0.61477745
Be       0.00000000       0.00000000       2.70787879       0.00000000       0.00000000      -0.61477745
2
Properties=species:S:1:pos:R:3:forces:R:3 energy=-0.7379836078933397 pbc="F F F"
Be       0.00000000       0.00000000       0.00000000       0.00000000       0.00000000       0.60386771
Be       0.00000000       0.00000000       2.76666667       0.00000000       0.00000000      -0.60386771
2
Properties=species:S:1:pos:R:3:forces:R:3 energy=-0.7029522951975252 pbc="F F F"
Be       0.00000000       0.00000000       0.00000000       0.00000000       0.00000000       0.58731973
Be       0.00000000       0.00000000       2.82545455       0.00000000       0.00000000      -0.58731973
2
Properties=species:S:1:pos:R:3:forces:R:3 energy=-0.6689697938984533 pbc="F F F"
Be       0.00000000       0.00000000       0.00000000       0.00000000       0.00000000       0.56862879
Be       0.00000000       0.00000000       2.88424242       0.00000000       0.00000000      -0.56862879
2
Properties=species:S:1:pos:R:3:forces:R:3 energy=-0.6361092793050825 pbc="F F F"
Be       0.00000000       0.00000000       0.00000000       0.00000000       0.00000000       0.54920006
Be       0.00000000       0.00000000       2.94303030       0.00000000       0.00000000      -0.54920006
2
Properties=species:S:1:pos:R:3:forces:R:3 energy=-0.6044144010511356 pbc="F F F"
Be       0.00000000       0.00000000       0.00000000       0.00000000       0.00000000       0.52887797
Be       0.00000000       0.00000000       3.00181818       0.00000000       0.00000000      -0.52887797
2
Properties=species:S:1:pos:R:3:forces:R:3 energy=-0.5739575358924743 pbc="F F F"
Be       0.00000000       0.00000000       0.00000000       0.00000000       0.00000000       0.50695723
Be       0.00000000       0.00000000       3.06060606       0.00000000       0.00000000      -0.50695723
2
Properties=species:S:1:pos:R:3:forces:R:3 energy=-0.5448489719804567 pbc="F F F"
Be       0.00000000       0.00000000       0.00000000       0.00000000       0.00000000       0.48300719
Be       0.00000000       0.00000000       3.11939394       0.00000000       0.00000000      -0.48300719
2
Properties=species:S:1:pos:R:3:forces:R:3 energy=-0.5172037333506379 pbc="F F F"
Be       0.00000000       0.00000000       0.00000000       0.00000000       0.00000000       0.45723525
Be       0.00000000       0.00000000       3.17818182       0.00000000       0.00000000      -0.45723525
2
Properties=species:S:1:pos:R:3:forces:R:3 energy=-0.4911082548713072 pbc="F F F"
Be       0.00000000       0.00000000       0.00000000       0.00000000       0.00000000       0.43048990
Be       0.00000000       0.00000000       3.23696970       0.00000000       0.00000000      -0.43048990
2
Properties=species:S:1:pos:R:3:forces:R:3 energy=-0.466583083715405 pbc="F F F"
Be       0.00000000       0.00000000       0.00000000       0.00000000       0.00000000       0.40403235
Be       0.00000000       0.00000000       3.29575758       0.00000000       0.00000000      -0.40403235
2
Properties=species:S:1:pos:R:3:forces:R:3 energy=-0.4435708755364286 pbc="F F F"
Be       0.00000000       0.00000000       0.00000000       0.00000000       0.00000000       0.37923771
Be       0.00000000       0.00000000       3.35454545       0.00000000       0.00000000      -0.37923771
2
Properties=species:S:1:pos:R:3:forces:R:3 energy=-0.4219376926034448 pbc="F F F"
Be       0.00000000       0.00000000       0.00000000       0.00000000       0.00000000       0.35729605
Be       0.00000000       0.00000000       3.41333333       0.00000000       0.00000000      -0.35729605
2
Properties=species:S:1:pos:R:3:forces:R:3 energy=-0.401490352256576 pbc="F F F"
Be       0.00000000       0.00000000       0.00000000       0.00000000       0.00000000       0.33896872
Be       0.00000000       0.00000000       3.47212121       0.00000000       0.00000000      -0.33896872
2
Properties=species:S:1:pos:R:3:forces:R:3 energy=-0.3820082405321752 pbc="F F F"
Be       0.00000000       0.00000000       0.00000000       0.00000000       0.00000000       0.32446039
Be       0.00000000       0.00000000       3.53090909       0.00000000       0.00000000      -0.32446039
2
Properties=species:S:1:pos:R:3:forces:R:3 energy=-0.36327335361174024 pbc="F F F"
Be       0.00000000       0.00000000       0.00000000       0.00000000       0.00000000       0.31342137
Be       0.00000000       0.00000000       3.58969697       0.00000000       0.00000000      -0.31342137
2
Properties=species:S:1:pos:R:3:forces:R:3 energy=-0.34510484129740676 pbc="F F F"
Be       0.00000000       0.00000000       0.00000000       0.00000000       0.00000000       0.30505231
Be       0.00000000       0.00000000       3.64848485       0.00000000       0.00000000      -0.30505231
2
Properties=species:S:1:pos:R:3:forces:R:3 energy=-0.3273754543900505 pbc="F F F"
Be       0.00000000       0.00000000       0.00000000       0.00000000       0.00000000       0.29828471
Be       0.00000000       0.00000000       3.70727273       0.00000000       0.00000000      -0.29828471
2
Properties=species:S:1:pos:R:3:forces:R:3 energy=-0.31002462486496385 pbc="F F F"
Be       0.00000000       0.00000000       0.00000000       0.00000000       0.00000000       0.29197213
Be       0.00000000       0.00000000       3.76606061       0.00000000       0.00000000      -0.29197213
2
Properties=species:S:1:pos:R:3:forces:R:3 energy=-0.2930584471128654 pbc="F F F"
Be       0.00000000       0.00000000       0.00000000       0.00000000       0.00000000       0.28506023
Be       0.00000000       0.00000000       3.82484848       0.00000000       0.00000000      -0.28506023
2
Properties=species:S:1:pos:R:3:forces:R:3 energy=-0.27653684735010403 pbc="F F F"
Be       0.00000000       0.00000000       0.00000000       0.00000000       0.00000000       0.27670863
Be       0.00000000       0.00000000       3.88363636       0.00000000       0.00000000      -0.27670863
2
Properties=species:S:1:pos:R:3:forces:R:3 energy=-0.2605634407416049 pbc="F F F"
Be       0.00000000       0.00000000       0.00000000       0.00000000       0.00000000       0.26636174
Be       0.00000000       0.00000000       3.94242424       0.00000000       0.00000000      -0.26636174
2
Properties=species:S:1:pos:R:3:forces:R:3 energy=-0.24526371576484757 pbc="F F F"
Be       0.00000000       0.00000000       0.00000000       0.00000000       0.00000000       0.25376934
Be       0.00000000       0.00000000       4.00121212       0.00000000       0.00000000      -0.25376934
2
Properties=species:S:1:pos:R:3:forces:R:3 energy=-0.2307698607219988 pbc="F F F"
Be       0.00000000       0.00000000       0.00000000       0.00000000       0.00000000       0.23896940
Be       0.00000000       0.00000000       4.06000000       0.00000000       0.00000000      -0.23896940
2
Properties=species:S:1:pos:R:3:forces:R:3 energy=-0.21720437223259692 pbc="F F F"
Be       0.00000000       0.00000000       0.00000000       0.00000000       0.00000000       0.22224726
Be       0.00000000       0.00000000       4.11878788       0.00000000       0.00000000      -0.22224726
2
Properties=species:S:1:pos:R:3:forces:R:3 energy=-0.2046673905384601 pbc="F F F"
Be       0.00000000       0.00000000       0.00000000       0.00000000       0.00000000       0.20407043
Be       0.00000000       0.00000000       4.17757576       0.00000000       0.00000000      -0.20407043
2
Properties=species:S:1:pos:R:3:forces:R:3 energy=-0.19322754702289116 pbc="F F F"
Be       0.00000000       0.00000000       0.00000000       0.00000000       0.00000000       0.18502922
Be       0.00000000       0.00000000       4.23636364       0.00000000       0.00000000      -0.18502922
2
Properties=species:S:1:pos:R:3:forces:R:3 energy=-0.18291644725924025 pbc="F F F"
Be       0.00000000       0.00000000       0.00000000       0.00000000       0.00000000       0.16577445
Be       0.00000000       0.00000000       4.29515152       0.00000000       0.00000000      -0.16577445
2
Properties=species:S:1:pos:R:3:forces:R:3 energy=-0.17372752595739693 pbc="F F F"
Be       0.00000000       0.00000000       0.00000000       0.00000000       0.00000000       0.14698009
Be       0.00000000       0.00000000       4.35393939       0.00000000       0.00000000      -0.14698009
2
Properties=species:S:1:pos:R:3:forces:R:3 energy=-0.16561360200540248 pbc="F F F"
Be       0.00000000       0.00000000       0.00000000       0.00000000       0.00000000       0.12930131
Be       0.00000000       0.00000000       4.41272727       0.00000000       0.00000000      -0.12930131
2
Properties=species:S:1:pos:R:3:forces:R:3 energy=-0.15849087748437599 pbc="F F F"
Be       0.00000000       0.00000000       0.00000000       0.00000000       0.00000000       0.11334845
Be       0.00000000       0.00000000       4.47151515       0.00000000       0.00000000      -0.11334845
2
Properties=species:S:1:pos:R:3:forces:R:3 energy=-0.15224247862321283 pbc="F F F"
Be       0.00000000       0.00000000       0.00000000       0.00000000       0.00000000       0.09962954
Be       0.00000000       0.00000000       4.53030303       0.00000000       0.00000000      -0.09962954
2
Properties=species:S:1:pos:R:3:forces:R:3 energy=-0.14672609182074825 pbc="F F F"
Be       0.00000000       0.00000000       0.00000000       0.00000000       0.00000000       0.08849491
Be       0.00000000       0.00000000       4.58909091       0.00000000       0.00000000      -0.08849491
2
Properties=species:S:1:pos:R:3:forces:R:3 energy=-0.141784350569088 pbc="F F F"
Be       0.00000000       0.00000000       0.00000000       0.00000000       0.00000000       0.08007687
Be       0.00000000       0.00000000       4.64787879       0.00000000       0.00000000      -0.08007687
2
Properties=species:S:1:pos:R:3:forces:R:3 energy=-0.1372598319414546 pbc="F F F"
Be       0.00000000       0.00000000       0.00000000       0.00000000       0.00000000       0.07425579
Be       0.00000000       0.00000000       4.70666667       0.00000000       0.00000000      -0.07425579
2
Properties=species:S:1:pos:R:3:forces:R:3 energy=-0.13300977570963934 pbc="F F F"
Be       0.00000000       0.00000000       0.00000000       0.00000000       0.00000000       0.07066913
Be       0.00000000       0.00000000       4.76545455       0.00000000       0.00000000      -0.07066913
2
Properties=species:S:1:pos:R:3:forces:R:3 energy=-0.1289180343673326 pbc="F F F"
Be       0.00000000       0.00000000       0.00000000       0.00000000       0.00000000       0.06875440
Be       0.00000000       0.00000000       4.82424242       0.00000000       0.00000000      -0.06875440
2
Properties=species:S:1:pos:R:3:forces:R:3 energy=-0.1249067908935328 pbc="F F F"
Be       0.00000000       0.00000000       0.00000000       0.00000000       0.00000000       0.06782759
Be       0.00000000       0.00000000       4.88303030       0.00000000       0.00000000      -0.06782759
2
Properties=species:S:1:pos:R:3:forces:R:3 energy=-0.12093786735588408 pbc="F F F"
Be       0.00000000       0.00000000       0.00000000       0.00000000       0.00000000       0.06717538
Be       0.00000000       0.00000000       4.94181818       0.00000000       0.00000000      -0.06717538
2
Properties=species:S:1:pos:R:3:forces:R:3 energy=-0.11701528831739091 pbc="F F F"
Be       0.00000000       0.00000000       0.00000000       0.00000000       0.00000000       0.06616635
Be       0.00000000       0.00000000       5.00060606       0.00000000       0.00000000      -0.06616635
2
Properties=species:S:1:pos:R:3:forces:R:3 energy=-0.11317367752159581 pbc="F F F"
Be       0.00000000       0.00000000       0.00000000       0.00000000       0.00000000       0.06437825
Be       0.00000000       0.00000000       5.05939394       0.00000000       0.00000000      -0.06437825
2
Properties=species:S:1:pos:R:3:forces:R:3 energy=-0.10946262786641009 pbc="F F F"
Be       0.00000000       0.00000000       0.00000000       0.00000000       0.00000000       0.06175353
Be       0.00000000       0.00000000       5.11818182       0.00000000       0.00000000      -0.06175353
2
Properties=species:S:1:pos:R:3:forces:R:3 energy=-0.10592137872557118 pbc="F F F"
Be       0.00000000       0.00000000       0.00000000       0.00000000       0.00000000       0.05872932
Be       0.00000000       0.00000000       5.17696970       0.00000000       0.00000000      -0.05872932
2
Properties=species:S:1:pos:R:3:forces:R:3 energy=-0.10254766935392544 pbc="F F F"
Be       0.00000000       0.00000000       0.00000000       0.00000000       0.00000000       0.05623108
Be       0.00000000       0.00000000       5.23575758       0.00000000       0.00000000      -0.05623108
2
Properties=species:S:1:pos:R:3:forces:R:3 energy=-0.09928068019469052 pbc="F F F"
Be       0.00000000       0.00000000       0.00000000       0.00000000       0.00000000       0.05519028
Be       0.00000000       0.00000000       5.29454545       0.00000000       0.00000000      -0.05519028
2
Properties=species:S:1:pos:R:3:forces:R:3 energy=-0.0960409080638294 pbc="F F F"
Be       0.00000000       0.00000000       0.00000000       0.00000000       0.00000000       0.05489767
Be       0.00000000       0.00000000       5.35333333       0.00000000       0.00000000      -0.05489767
2
Properties=species:S:1:pos:R:3:forces:R:3 energy=-0.09289924346745933 pbc="F F F"
Be       0.00000000       0.00000000       0.00000000       0.00000000       0.00000000       0.05078466
Be       0.00000000       0.00000000       5.41212121       0.00000000       0.00000000      -0.05078466
2
Properties=species:S:1:pos:R:3:forces:R:3 energy=-0.09024535416132451 pbc="F F F"
Be       0.00000000       0.00000000       0.00000000       0.00000000       0.00000000       0.03817055
Be       0.00000000       0.00000000       5.47090909       0.00000000       0.00000000      -0.03817055
2
Properties=species:S:1:pos:R:3:forces:R:3 energy=-0.08846944202012122 pbc="F F F"
Be       0.00000000       0.00000000       0.00000000       0.00000000       0.00000000       0.02270485
Be       0.00000000       0.00000000       5.52969697       0.00000000       0.00000000      -0.02270485
2
Properties=species:S:1:pos:R:3:forces:R:3 energy=-0.08746551124518988 pbc="F F F"
Be       0.00000000       0.00000000       0.00000000       0.00000000       0.00000000       0.01239067
Be       0.00000000       0.00000000       5.58848485       0.00000000       0.00000000      -0.01239067
2
Properties=species:S:1:pos:R:3:forces:R:3 energy=-0.08695411672058435 pbc="F F F"
Be       0.00000000       0.00000000       0.00000000       0.00000000       0.00000000       0.00497328
Be       0.00000000       0.00000000       5.64727273       0.00000000       0.00000000      -0.00497328
2
Properties=species:S:1:pos:R:3:forces:R:3 energy=-0.08693393002081626 pbc="F F F"
Be       0.00000000       0.00000000       0.00000000       0.00000000       0.00000000      -0.00488696
Be       0.00000000       0.00000000       5.70606061       0.00000000       0.00000000       0.00488696
2
Properties=species:S:1:pos:R:3:forces:R:3 energy=-0.08753962361874343 pbc="F F F"
Be       0.00000000       0.00000000       0.00000000       0.00000000       0.00000000      -0.01481937
Be       0.00000000       0.00000000       5.76484848       0.00000000       0.00000000       0.01481937
2
Properties=species:S:1:pos:R:3:forces:R:3 energy=-0.08848002742748601 pbc="F F F"
Be       0.00000000       0.00000000       0.00000000       0.00000000       0.00000000      -0.01528366
Be       0.00000000       0.00000000       5.82363636       0.00000000       0.00000000       0.01528366
2
Properties=species:S:1:pos:R:3:forces:R:3 energy=-0.08915976305046704 pbc="F F F"
Be       0.00000000       0.00000000       0.00000000       0.00000000       0.00000000      -0.00721429
Be       0.00000000       0.00000000       5.88242424       0.00000000       0.00000000       0.00721429
2
Properties=species:S:1:pos:R:3:forces:R:3 energy=-0.08932965377097303 pbc="F F F"
Be       0.00000000       0.00000000       0.00000000       0.00000000       0.00000000       0.00093847
Be       0.00000000       0.00000000       5.94121212       0.00000000       0.00000000      -0.00093847
2
Properties=species:S:1:pos:R:3:forces:R:3 energy=-0.08915346519623331 pbc="F F F"
Be       0.00000000       0.00000000       0.00000000       0.00000000       0.00000000       0.00395838
Be       0.00000000       0.00000000       6.00000000       0.00000000       0.00000000      -0.00395838
