2
Properties=species:S:1:pos:R:3:forces:R:3 energy=2327.3075310387317 pbc="F F F"
Ca       0.00000000       0.00000000       0.00000000       0.00000000       0.00000000  -34714.92968750
Ca       0.00000000       0.00000000       0.18000000       0.00000000       0.00000000   34714.92968750
2
Properties=species:S:1:pos:R:3:forces:R:3 energy=1049.921544710607 pbc="F F F"
Ca       0.00000000       0.00000000       0.00000000       0.00000000       0.00000000  -12967.35156250
Ca       0.00000000       0.00000000       0.23878788       0.00000000       0.00000000   12967.35156250
2
Properties=species:S:1:pos:R:3:forces:R:3 energy=536.3041130699819 pbc="F F F"
Ca       0.00000000       0.00000000       0.00000000       0.00000000       0.00000000   -5682.01660156
Ca       0.00000000       0.00000000       0.29757576       0.00000000       0.00000000    5682.01660156
2
Properties=species:S:1:pos:R:3:forces:R:3 energy=299.89029471060684 pbc="F F F"
Ca       0.00000000       0.00000000       0.00000000       0.00000000       0.00000000   -2765.15136719
Ca       0.00000000       0.00000000       0.35636364       0.00000000       0.00000000    2765.15136719
2
Properties=species:S:1:pos:R:3:forces:R:3 energy=180.8756615445672 pbc="F F F"
Ca       0.00000000       0.00000000       0.00000000       0.00000000       0.00000000   -1445.56884766
Ca       0.00000000       0.00000000       0.41515152       0.00000000       0.00000000    1445.56884766
2
Properties=species:S:1:pos:R:3:forces:R:3 energy=117.11993951134006 pbc="F F F"
Ca       0.00000000       0.00000000       0.00000000       0.00000000       0.00000000    -795.77130127
Ca       0.00000000       0.00000000       0.47393939       0.00000000       0.00000000     795.77130127
2
Properties=species:S:1:pos:R:3:forces:R:3 energy=81.35441373148284 pbc="F F F"
Ca       0.00000000       0.00000000       0.00000000       0.00000000       0.00000000    -456.04602051
Ca       0.00000000       0.00000000       0.53272727       0.00000000       0.00000000     456.04602051
2
Properties=species:S:1:pos:R:3:forces:R:3 energy=60.526780878115254 pbc="F F F"
Ca       0.00000000       0.00000000       0.00000000       0.00000000       0.00000000    -270.55538940
Ca       0.00000000       0.00000000       0.59151515       0.00000000       0.00000000     270.55538940
2
Properties=species:S:1:pos:R:3:forces:R:3 energy=47.978654746111154 pbc="F F F"
Ca       0.00000000       0.00000000       0.00000000       0.00000000       0.00000000    -166.06436157
Ca       0.00000000       0.00000000       0.65030303       0.00000000       0.00000000     166.06436157
2
Properties=species:S:1:pos:R:3:forces:R:3 energy=40.14014627953829 pbc="F F F"
Ca       0.00000000       0.00000000       0.00000000       0.00000000       0.00000000    -106.08186340
Ca       0.00000000       0.00000000       0.70909091       0.00000000       0.00000000     106.08186340
2
Properties=species:S:1:pos:R:3:forces:R:3 energy=35.010950327958014 pbc="F F F"
Ca       0.00000000       0.00000000       0.00000000       0.00000000       0.00000000     -71.63732910
Ca       0.00000000       0.00000000       0.76787879       0.00000000       0.00000000      71.63732910
2
Properties=species:S:1:pos:R:3:forces:R:3 energy=31.419697376771868 pbc="F F F"
Ca       0.00000000       0.00000000       0.00000000       0.00000000       0.00000000     -52.52521133
Ca       0.00000000       0.00000000       0.82666667       0.00000000       0.00000000      52.52521133
2
Properties=species:S:1:pos:R:3:forces:R:3 energy=28.647538243850953 pbc="F F F"
Ca       0.00000000       0.00000000       0.00000000       0.00000000       0.00000000     -43.07073212
Ca       0.00000000       0.00000000       0.88545455       0.00000000       0.00000000      43.07073212
2
Properties=species:S:1:pos:R:3:forces:R:3 energy=26.230567670750343 pbc="F F F"
Ca       0.00000000       0.00000000       0.00000000       0.00000000       0.00000000     -40.03897476
Ca       0.00000000       0.00000000       0.94424242       0.00000000       0.00000000      40.03897476
2
Properties=species:S:1:pos:R:3:forces:R:3 energy=23.855744033814762 pbc="F F F"
Ca       0.00000000       0.00000000       0.00000000       0.00000000       0.00000000     -41.26979446
Ca       0.00000000       0.00000000       1.00303030       0.00000000       0.00000000      41.26979446
2
Properties=species:S:1:pos:R:3:forces:R:3 energy=21.352052585291478 pbc="F F F"
Ca       0.00000000       0.00000000       0.00000000       0.00000000       0.00000000     -43.82391357
Ca       0.00000000       0.00000000       1.06181818       0.00000000       0.00000000      43.82391357
2
Properties=species:S:1:pos:R:3:forces:R:3 energy=18.731746234167982 pbc="F F F"
Ca       0.00000000       0.00000000       0.00000000       0.00000000       0.00000000     -45.02786255
Ca       0.00000000       0.00000000       1.12060606       0.00000000       0.00000000      45.02786255
2
Properties=species:S:1:pos:R:3:forces:R:3 energy=16.09985512895775 pbc="F F F"
Ca       0.00000000       0.00000000       0.00000000       0.00000000       0.00000000     -44.02801132
Ca       0.00000000       0.00000000       1.17939394       0.00000000       0.00000000      44.02801132
2
Properties=species:S:1:pos:R:3:forces:R:3 energy=13.621703607494272 pbc="F F F"
Ca       0.00000000       0.00000000       0.00000000       0.00000000       0.00000000     -39.73999023
Ca       0.00000000       0.00000000       1.23818182       0.00000000       0.00000000      39.73999023
2
Properties=species:S:1:pos:R:3:forces:R:3 energy=11.468487780377153 pbc="F F F"
Ca       0.00000000       0.00000000       0.00000000       0.00000000       0.00000000     -33.41949081
Ca       0.00000000       0.00000000       1.29696970       0.00000000       0.00000000      33.41949081
2
Properties=species:S:1:pos:R:3:forces:R:3 energy=9.67520670607094 pbc="F F F"
Ca       0.00000000       0.00000000       0.00000000       0.00000000       0.00000000     -27.89333153
Ca       0.00000000       0.00000000       1.35575758       0.00000000       0.00000000      27.89333153
2
Properties=species:S:1:pos:R:3:forces:R:3 energy=8.154494470518982 pbc="F F F"
Ca       0.00000000       0.00000000       0.00000000       0.00000000       0.00000000     -24.02174187
Ca       0.00000000       0.00000000       1.41454545       0.00000000       0.00000000      24.02174187
2
Properties=species:S:1:pos:R:3:forces:R:3 energy=6.850064000467414 pbc="F F F"
Ca       0.00000000       0.00000000       0.00000000       0.00000000       0.00000000     -20.23144531
Ca       0.00000000       0.00000000       1.47333333       0.00000000       0.00000000      20.23144531
2
Properties=species:S:1:pos:R:3:forces:R:3 energy=5.789140566889618 pbc="F F F"
Ca       0.00000000       0.00000000       0.00000000       0.00000000       0.00000000     -15.83425617
Ca       0.00000000       0.00000000       1.53212121       0.00000000       0.00000000      15.83425617
2
Properties=species:S:1:pos:R:3:forces:R:3 energy=4.982858119360825 pbc="F F F"
Ca       0.00000000       0.00000000       0.00000000       0.00000000       0.00000000     -11.66328049
Ca       0.00000000       0.00000000       1.59090909       0.00000000       0.00000000      11.66328049
2
Properties=species:S:1:pos:R:3:forces:R:3 energy=4.410634311400702 pbc="F F F"
Ca       0.00000000       0.00000000       0.00000000       0.00000000       0.00000000      -7.88291073
Ca       0.00000000       0.00000000       1.64969697       0.00000000       0.00000000       7.88291073
2
Properties=species:S:1:pos:R:3:forces:R:3 energy=4.04027920027193 pbc="F F F"
Ca       0.00000000       0.00000000       0.00000000       0.00000000       0.00000000      -4.90814447
Ca       0.00000000       0.00000000       1.70848485       0.00000000       0.00000000       4.90814447
2
Properties=species:S:1:pos:R:3:forces:R:3 energy=3.807690303348443 pbc="F F F"
Ca       0.00000000       0.00000000       0.00000000       0.00000000       0.00000000      -3.22509718
Ca       0.00000000       0.00000000       1.76727273       0.00000000       0.00000000       3.22509718
2
Properties=species:S:1:pos:R:3:forces:R:3 energy=3.6389750192469723 pbc="F F F"
Ca       0.00000000       0.00000000       0.00000000       0.00000000       0.00000000      -2.65985918
Ca       0.00000000       0.00000000       1.82606061       0.00000000       0.00000000       2.65985918
2
Properties=species:S:1:pos:R:3:forces:R:3 energy=3.482932085130682 pbc="F F F"
Ca       0.00000000       0.00000000       0.00000000       0.00000000       0.00000000      -2.71512818
Ca       0.00000000       0.00000000       1.88484848       0.00000000       0.00000000       2.71512818
2
Properties=species:S:1:pos:R:3:forces:R:3 energy=3.3146425739911503 pbc="F F F"
Ca       0.00000000       0.00000000       0.00000000       0.00000000       0.00000000      -3.03816104
Ca       0.00000000       0.00000000       1.94363636       0.00000000       0.00000000       3.03816104
2
Properties=species:S:1:pos:R:3:forces:R:3 energy=3.1234836896877773 pbc="F F F"
Ca       0.00000000       0.00000000       0.00000000       0.00000000       0.00000000      -3.47681379
Ca       0.00000000       0.00000000       2.00242424       0.00000000       0.00000000       3.47681379
2
Properties=species:S:1:pos:R:3:forces:R:3 energy=2.90530625336746 pbc="F F F"
Ca       0.00000000       0.00000000       0.00000000       0.00000000       0.00000000      -3.94300652
Ca       0.00000000       0.00000000       2.06121212       0.00000000       0.00000000       3.94300652
2
Properties=species:S:1:pos:R:3:forces:R:3 energy=2.6610254492573873 pbc="F F F"
Ca       0.00000000       0.00000000       0.00000000       0.00000000       0.00000000      -4.35183573
Ca       0.00000000       0.00000000       2.12000000       0.00000000       0.00000000       4.35183573
2
Properties=species:S:1:pos:R:3:forces:R:3 energy=2.3959307779406807 pbc="F F F"
Ca       0.00000000       0.00000000       0.00000000       0.00000000       0.00000000      -4.64525986
Ca       0.00000000       0.00000000       2.17878788       0.00000000       0.00000000       4.64525986
2
Properties=species:S:1:pos:R:3:forces:R:3 energy=2.1173977275054643 pbc="F F F"
Ca       0.00000000       0.00000000       0.00000000       0.00000000       0.00000000      -4.80974722
Ca       0.00000000       0.00000000       2.23757576       0.00000000       0.00000000       4.80974722
2
Properties=species:S:1:pos:R:3:forces:R:3 energy=1.832746863403551 pbc="F F F"
Ca       0.00000000       0.00000000       0.00000000       0.00000000       0.00000000      -4.85538721
Ca       0.00000000       0.00000000       2.29636364       0.00000000       0.00000000       4.85538721
2
Properties=species:S:1:pos:R:3:forces:R:3 energy=1.5487119344394515 pbc="F F F"
Ca       0.00000000       0.00000000       0.00000000       0.00000000       0.00000000      -4.78902531
Ca       0.00000000       0.00000000       2.35515152       0.00000000       0.00000000       4.78902531
2
Properties=species:S:1:pos:R:3:forces:R:3 energy=1.2718684376699028 pbc="F F F"
Ca       0.00000000       0.00000000       0.00000000       0.00000000       0.00000000      -4.61085224
Ca       0.00000000       0.00000000       2.41393939       0.00000000       0.00000000       4.61085224
2
Properties=species:S:1:pos:R:3:forces:R:3 energy=1.0086583735863257 pbc="F F F"
Ca       0.00000000       0.00000000       0.00000000       0.00000000       0.00000000      -4.32741070
Ca       0.00000000       0.00000000       2.47272727       0.00000000       0.00000000       4.32741070
2
Properties=species:S:1:pos:R:3:forces:R:3 energy=0.7647333658355454 pbc="F F F"
Ca       0.00000000       0.00000000       0.00000000       0.00000000       0.00000000      -3.95949936
Ca       0.00000000       0.00000000       2.53151515       0.00000000       0.00000000       3.95949936
2
Properties=species:S:1:pos:R:3:forces:R:3 energy=0.5441645918137913 pbc="F F F"
Ca       0.00000000       0.00000000       0.00000000       0.00000000       0.00000000      -3.53835011
Ca       0.00000000       0.00000000       2.59030303       0.00000000       0.00000000       3.53835011
2
Properties=species:S:1:pos:R:3:forces:R:3 energy=0.3490965036072366 pbc="F F F"
Ca       0.00000000       0.00000000       0.00000000       0.00000000       0.00000000      -3.09717226
Ca       0.00000000       0.00000000       2.64909091       0.00000000       0.00000000       3.09717226
2
Properties=species:S:1:pos:R:3:forces:R:3 energy=0.17983030642084658 pbc="F F F"
Ca       0.00000000       0.00000000       0.00000000       0.00000000       0.00000000      -2.66498423
Ca       0.00000000       0.00000000       2.70787879       0.00000000       0.00000000       2.66498423
2
Properties=species:S:1:pos:R:3:forces:R:3 energy=0.035143281543272495 pbc="F F F"
Ca       0.00000000       0.00000000       0.00000000       0.00000000       0.00000000      -2.26406598
Ca       0.00000000       0.00000000       2.76666667       0.00000000       0.00000000       2.26406598
2
Properties=species:S:1:pos:R:3:forces:R:3 energy=-0.08727884455078293 pbc="F F F"
Ca       0.00000000       0.00000000       0.00000000       0.00000000       0.00000000      -1.90937495
Ca       0.00000000       0.00000000       2.82545455       0.00000000       0.00000000       1.90937495
2
Properties=species:S:1:pos:R:3:forces:R:3 energy=-0.1904144344472276 pbc="F F F"
Ca       0.00000000       0.00000000       0.00000000       0.00000000       0.00000000      -1.60858536
Ca       0.00000000       0.00000000       2.88424242       0.00000000       0.00000000       1.60858536
2
Properties=species:S:1:pos:R:3:forces:R:3 energy=-0.2774871344986992 pbc="F F F"
Ca       0.00000000       0.00000000       0.00000000       0.00000000       0.00000000      -1.36252499
Ca       0.00000000       0.00000000       2.94303030       0.00000000       0.00000000       1.36252499
2
Properties=species:S:1:pos:R:3:forces:R:3 energy=-0.35159242942632135 pbc="F F F"
Ca       0.00000000       0.00000000       0.00000000       0.00000000       0.00000000      -1.16621208
Ca       0.00000000       0.00000000       3.00181818       0.00000000       0.00000000       1.16621208
2
Properties=species:S:1:pos:R:3:forces:R:3 energy=-0.4153999284274609 pbc="F F F"
Ca       0.00000000       0.00000000       0.00000000       0.00000000       0.00000000      -1.01040626
Ca       0.00000000       0.00000000       3.06060606       0.00000000       0.00000000       1.01040626
2
Properties=species:S:1:pos:R:3:forces:R:3 energy=-0.4709559114106738 pbc="F F F"
Ca       0.00000000       0.00000000       0.00000000       0.00000000       0.00000000      -0.88343203
Ca       0.00000000       0.00000000       3.11939394       0.00000000       0.00000000       0.88343203
2
Properties=species:S:1:pos:R:3:forces:R:3 energy=-0.5195984201083973 pbc="F F F"
Ca       0.00000000       0.00000000       0.00000000       0.00000000       0.00000000      -0.77324891
Ca       0.00000000       0.00000000       3.17818182       0.00000000       0.00000000       0.77324891
2
Properties=species:S:1:pos:R:3:forces:R:3 energy=-0.5619973513679937 pbc="F F F"
Ca       0.00000000       0.00000000       0.00000000       0.00000000       0.00000000      -0.66959262
Ca       0.00000000       0.00000000       3.23696970       0.00000000       0.00000000       0.66959262
2
Properties=species:S:1:pos:R:3:forces:R:3 energy=-0.5983199902577443 pbc="F F F"
Ca       0.00000000       0.00000000       0.00000000       0.00000000       0.00000000      -0.56579465
Ca       0.00000000       0.00000000       3.29575758       0.00000000       0.00000000       0.56579465
2
Properties=species:S:1:pos:R:3:forces:R:3 energy=-0.6284730589374639 pbc="F F F"
Ca       0.00000000       0.00000000       0.00000000       0.00000000       0.00000000      -0.45968428
Ca       0.00000000       0.00000000       3.35454545       0.00000000       0.00000000       0.45968428
2
Properties=species:S:1:pos:R:3:forces:R:3 energy=-0.6523579876369336 pbc="F F F"
Ca       0.00000000       0.00000000       0.00000000       0.00000000       0.00000000      -0.35315236
Ca       0.00000000       0.00000000       3.41333333       0.00000000       0.00000000       0.35315236
2
Properties=species:S:1:pos:R:3:forces:R:3 energy=-0.6700711630436109 pbc="F F F"
Ca       0.00000000       0.00000000       0.00000000       0.00000000       0.00000000      -0.25050482
Ca       0.00000000       0.00000000       3.47212121       0.00000000       0.00000000       0.25050482
2
Properties=species:S:1:pos:R:3:forces:R:3 energy=-0.681977076793067 pbc="F F F"
Ca       0.00000000       0.00000000       0.00000000       0.00000000       0.00000000      -0.15624475
Ca       0.00000000       0.00000000       3.53090909       0.00000000       0.00000000       0.15624475
2
Properties=species:S:1:pos:R:3:forces:R:3 energy=-0.6886634294366567 pbc="F F F"
Ca       0.00000000       0.00000000       0.00000000       0.00000000       0.00000000      -0.07322549
Ca       0.00000000       0.00000000       3.58969697       0.00000000       0.00000000       0.07322549
2
Properties=species:S:1:pos:R:3:forces:R:3 energy=-0.6908177433721105 pbc="F F F"
Ca       0.00000000       0.00000000       0.00000000       0.00000000       0.00000000      -0.00195776
Ca       0.00000000       0.00000000       3.64848485       0.00000000       0.00000000       0.00195776
2
Properties=species:S:1:pos:R:3:forces:R:3 energy=-0.6891013564583389 pbc="F F F"
Ca       0.00000000       0.00000000       0.00000000       0.00000000       0.00000000       0.05870439
Ca       0.00000000       0.00000000       3.70727273       0.00000000       0.00000000      -0.05870439
2
Properties=species:S:1:pos:R:3:forces:R:3 energy=-0.684096648852623 pbc="F F F"
Ca       0.00000000       0.00000000       0.00000000       0.00000000       0.00000000       0.11008932
Ca       0.00000000       0.00000000       3.76606061       0.00000000       0.00000000      -0.11008932
2
Properties=species:S:1:pos:R:3:forces:R:3 energy=-0.6763324455512323 pbc="F F F"
Ca       0.00000000       0.00000000       0.00000000       0.00000000       0.00000000       0.15253402
Ca       0.00000000       0.00000000       3.82484848       0.00000000       0.00000000      -0.15253402
2
Properties=species:S:1:pos:R:3:forces:R:3 energy=-0.6663502355186025 pbc="F F F"
Ca       0.00000000       0.00000000       0.00000000       0.00000000       0.00000000       0.18540202
Ca       0.00000000       0.00000000       3.88363636       0.00000000       0.00000000      -0.18540202
2
Properties=species:S:1:pos:R:3:forces:R:3 energy=-0.6547276617437304 pbc="F F F"
Ca       0.00000000       0.00000000       0.00000000       0.00000000       0.00000000       0.20845266
Ca       0.00000000       0.00000000       3.94242424       0.00000000       0.00000000      -0.20845266
2
Properties=species:S:1:pos:R:3:forces:R:3 energy=-0.6419930187252695 pbc="F F F"
Ca       0.00000000       0.00000000       0.00000000       0.00000000       0.00000000       0.22388433
Ca       0.00000000       0.00000000       4.00121212       0.00000000       0.00000000      -0.22388433
2
Properties=species:S:1:pos:R:3:forces:R:3 energy=-0.6284482676249281 pbc="F F F"
Ca       0.00000000       0.00000000       0.00000000       0.00000000       0.00000000       0.23709328
Ca       0.00000000       0.00000000       4.06000000       0.00000000       0.00000000      -0.23709328
2
Properties=species:S:1:pos:R:3:forces:R:3 energy=-0.6140418424241759 pbc="F F F"
Ca       0.00000000       0.00000000       0.00000000       0.00000000       0.00000000       0.25396934
Ca       0.00000000       0.00000000       4.11878788       0.00000000       0.00000000      -0.25396934
2
Properties=species:S:1:pos:R:3:forces:R:3 energy=-0.5984782598104262 pbc="F F F"
Ca       0.00000000       0.00000000       0.00000000       0.00000000       0.00000000       0.27623016
Ca       0.00000000       0.00000000       4.17757576       0.00000000       0.00000000      -0.27623016
2
Properties=species:S:1:pos:R:3:forces:R:3 energy=-0.5815254532009609 pbc="F F F"
Ca       0.00000000       0.00000000       0.00000000       0.00000000       0.00000000       0.30038267
Ca       0.00000000       0.00000000       4.23636364       0.00000000       0.00000000      -0.30038267
2
Properties=species:S:1:pos:R:3:forces:R:3 energy=-0.5632209216435795 pbc="F F F"
Ca       0.00000000       0.00000000       0.00000000       0.00000000       0.00000000       0.32152447
Ca       0.00000000       0.00000000       4.29515152       0.00000000       0.00000000      -0.32152447
2
Properties=species:S:1:pos:R:3:forces:R:3 energy=-0.5438366735940946 pbc="F F F"
Ca       0.00000000       0.00000000       0.00000000       0.00000000       0.00000000       0.33692732
Ca       0.00000000       0.00000000       4.35393939       0.00000000       0.00000000      -0.33692732
2
Properties=species:S:1:pos:R:3:forces:R:3 energy=-0.5237218591362495 pbc="F F F"
Ca       0.00000000       0.00000000       0.00000000       0.00000000       0.00000000       0.34651083
Ca       0.00000000       0.00000000       4.41272727       0.00000000       0.00000000      -0.34651083
2
Properties=species:S:1:pos:R:3:forces:R:3 energy=-0.5031830442184737 pbc="F F F"
Ca       0.00000000       0.00000000       0.00000000       0.00000000       0.00000000       0.35160419
Ca       0.00000000       0.00000000       4.47151515       0.00000000       0.00000000      -0.35160419
2
Properties=species:S:1:pos:R:3:forces:R:3 energy=-0.4824387123824108 pbc="F F F"
Ca       0.00000000       0.00000000       0.00000000       0.00000000       0.00000000       0.35375506
Ca       0.00000000       0.00000000       4.53030303       0.00000000       0.00000000      -0.35375506
2
Properties=species:S:1:pos:R:3:forces:R:3 energy=-0.4616256193193511 pbc="F F F"
Ca       0.00000000       0.00000000       0.00000000       0.00000000       0.00000000       0.35408455
Ca       0.00000000       0.00000000       4.58909091       0.00000000       0.00000000      -0.35408455
2
Properties=species:S:1:pos:R:3:forces:R:3 energy=-0.4408332412360927 pbc="F F F"
Ca       0.00000000       0.00000000       0.00000000       0.00000000       0.00000000       0.35307145
Ca       0.00000000       0.00000000       4.64787879       0.00000000       0.00000000      -0.35307145
2
Properties=species:S:1:pos:R:3:forces:R:3 energy=-0.42014124833110394 pbc="F F F"
Ca       0.00000000       0.00000000       0.00000000       0.00000000       0.00000000       0.35058302
Ca       0.00000000       0.00000000       4.70666667       0.00000000       0.00000000      -0.35058302
2
Properties=species:S:1:pos:R:3:forces:R:3 energy=-0.39965169724367894 pbc="F F F"
Ca       0.00000000       0.00000000       0.00000000       0.00000000       0.00000000       0.34611458
Ca       0.00000000       0.00000000       4.76545455       0.00000000       0.00000000      -0.34611458
2
Properties=species:S:1:pos:R:3:forces:R:3 energy=-0.3794960502398698 pbc="F F F"
Ca       0.00000000       0.00000000       0.00000000       0.00000000       0.00000000       0.33912638
Ca       0.00000000       0.00000000       4.82424242       0.00000000       0.00000000      -0.33912638
2
Properties=species:S:1:pos:R:3:forces:R:3 energy=-0.3598336206046415 pbc="F F F"
Ca       0.00000000       0.00000000       0.00000000       0.00000000       0.00000000       0.32941660
Ca       0.00000000       0.00000000       4.88303030       0.00000000       0.00000000      -0.32941660
2
Properties=species:S:1:pos:R:3:forces:R:3 energy=-0.3408105844655723 pbc="F F F"
Ca       0.00000000       0.00000000       0.00000000       0.00000000       0.00000000       0.31740749
Ca       0.00000000       0.00000000       4.94181818       0.00000000       0.00000000      -0.31740749
2
Properties=species:S:1:pos:R:3:forces:R:3 energy=-0.32253650774644915 pbc="F F F"
Ca       0.00000000       0.00000000       0.00000000       0.00000000       0.00000000       0.30418992
Ca       0.00000000       0.00000000       5.00060606       0.00000000       0.00000000      -0.30418992
2
Properties=species:S:1:pos:R:3:forces:R:3 energy=-0.3050379884770045 pbc="F F F"
Ca       0.00000000       0.00000000       0.00000000       0.00000000       0.00000000       0.29130125
Ca       0.00000000       0.00000000       5.05939394       0.00000000       0.00000000      -0.29130125
2
Properties=species:S:1:pos:R:3:forces:R:3 energy=-0.28825208407096686 pbc="F F F"
Ca       0.00000000       0.00000000       0.00000000       0.00000000       0.00000000       0.28011915
Ca       0.00000000       0.00000000       5.11818182       0.00000000       0.00000000      -0.28011915
2
Properties=species:S:1:pos:R:3:forces:R:3 energy=-0.272065323486077 pbc="F F F"
Ca       0.00000000       0.00000000       0.00000000       0.00000000       0.00000000       0.27080911
Ca       0.00000000       0.00000000       5.17696970       0.00000000       0.00000000      -0.27080911
2
Properties=species:S:1:pos:R:3:forces:R:3 energy=-0.2564214479992742 pbc="F F F"
Ca       0.00000000       0.00000000       0.00000000       0.00000000       0.00000000       0.26096439
Ca       0.00000000       0.00000000       5.23575758       0.00000000       0.00000000      -0.26096439
2
Properties=species:S:1:pos:R:3:forces:R:3 energy=-0.2414879842440913 pbc="F F F"
Ca       0.00000000       0.00000000       0.00000000       0.00000000       0.00000000       0.24586645
Ca       0.00000000       0.00000000       5.29454545       0.00000000       0.00000000      -0.24586645
2
Properties=species:S:1:pos:R:3:forces:R:3 energy=-0.22763752799822173 pbc="F F F"
Ca       0.00000000       0.00000000       0.00000000       0.00000000       0.00000000       0.22497918
Ca       0.00000000       0.00000000       5.35333333       0.00000000       0.00000000      -0.22497918
2
Properties=species:S:1:pos:R:3:forces:R:3 energy=-0.2148879731437819 pbc="F F F"
Ca       0.00000000       0.00000000       0.00000000       0.00000000       0.00000000       0.21174446
Ca       0.00000000       0.00000000       5.41212121       0.00000000       0.00000000      -0.21174446
2
Properties=species:S:1:pos:R:3:forces:R:3 energy=-0.20230020496198875 pbc="F F F"
Ca       0.00000000       0.00000000       0.00000000       0.00000000       0.00000000       0.21960139
Ca       0.00000000       0.00000000       5.47090909       0.00000000       0.00000000      -0.21960139
2
Properties=species:S:1:pos:R:3:forces:R:3 energy=-0.1890139833418935 pbc="F F F"
Ca       0.00000000       0.00000000       0.00000000       0.00000000       0.00000000       0.22993307
Ca       0.00000000       0.00000000       5.52969697       0.00000000       0.00000000      -0.22993307
2
Properties=species:S:1:pos:R:3:forces:R:3 energy=-0.1757116738630427 pbc="F F F"
Ca       0.00000000       0.00000000       0.00000000       0.00000000       0.00000000       0.21928823
Ca       0.00000000       0.00000000       5.58848485       0.00000000       0.00000000      -0.21928823
2
Properties=species:S:1:pos:R:3:forces:R:3 energy=-0.16330064247225018 pbc="F F F"
Ca       0.00000000       0.00000000       0.00000000       0.00000000       0.00000000       0.20600823
Ca       0.00000000       0.00000000       5.64727273       0.00000000       0.00000000      -0.20600823
2
Properties=species:S:1:pos:R:3:forces:R:3 energy=-0.15074218756888574 pbc="F F F"
Ca       0.00000000       0.00000000       0.00000000       0.00000000       0.00000000       0.22928789
Ca       0.00000000       0.00000000       5.70606061       0.00000000       0.00000000      -0.22928789
2
Properties=species:S:1:pos:R:3:forces:R:3 energy=-0.13575079658480535 pbc="F F F"
Ca       0.00000000       0.00000000       0.00000000       0.00000000       0.00000000       0.27837473
Ca       0.00000000       0.00000000       5.76484848       0.00000000       0.00000000      -0.27837473
2
Properties=species:S:1:pos:R:3:forces:R:3 energy=-0.11913700368817388 pbc="F F F"
Ca       0.00000000       0.00000000       0.00000000       0.00000000       0.00000000       0.27241594
Ca       0.00000000       0.00000000       5.82363636       0.00000000       0.00000000      -0.27241594
2
Properties=species:S:1:pos:R:3:forces:R:3 energy=-0.10547613683776641 pbc="F F F"
Ca       0.00000000       0.00000000       0.00000000       0.00000000       0.00000000       0.18327987
Ca       0.00000000       0.00000000       5.88242424       0.00000000       0.00000000      -0.18327987
2
Properties=species:S:1:pos:R:3:forces:R:3 energy=-0.0978385585742568 pbc="F F F"
Ca       0.00000000       0.00000000       0.00000000       0.00000000       0.00000000       0.08069567
Ca       0.00000000       0.00000000       5.94121212       0.00000000       0.00000000      -0.08069567
2
Properties=species:S:1:pos:R:3:forces:R:3 energy=-0.09476549515032996 pbc="F F F"
Ca       0.00000000       0.00000000       0.00000000       0.00000000       0.00000000       0.03754949
Ca       0.00000000       0.00000000       6.00000000       0.00000000       0.00000000      -0.03754949
