2
Properties=species:S:1:pos:R:3:forces:R:3 energy=8550.068511166148 pbc="F F F"
Cd       0.00000000       0.00000000       0.00000000       0.00000000       0.00000000 -135767.62500000
Cd       0.00000000       0.00000000       0.18000000       0.00000000       0.00000000  135767.62500000
2
Properties=species:S:1:pos:R:3:forces:R:3 energy=3720.3063041348987 pbc="F F F"
Cd       0.00000000       0.00000000       0.00000000       0.00000000       0.00000000  -46876.58203125
Cd       0.00000000       0.00000000       0.23878788       0.00000000       0.00000000   46876.58203125
2
Properties=species:S:1:pos:R:3:forces:R:3 energy=1921.3022758177538 pbc="F F F"
Cd       0.00000000       0.00000000       0.00000000       0.00000000       0.00000000  -19078.76562500
Cd       0.00000000       0.00000000       0.29757576       0.00000000       0.00000000   19078.76562500
2
Properties=species:S:1:pos:R:3:forces:R:3 energy=1153.2851859771717 pbc="F F F"
Cd       0.00000000       0.00000000       0.00000000       0.00000000       0.00000000   -8605.93652344
Cd       0.00000000       0.00000000       0.35636364       0.00000000       0.00000000    8605.93652344
2
Properties=species:S:1:pos:R:3:forces:R:3 energy=795.1050712374135 pbc="F F F"
Cd       0.00000000       0.00000000       0.00000000       0.00000000       0.00000000   -4174.20117188
Cd       0.00000000       0.00000000       0.41515152       0.00000000       0.00000000    4174.20117188
2
Properties=species:S:1:pos:R:3:forces:R:3 energy=616.5451957681393 pbc="F F F"
Cd       0.00000000       0.00000000       0.00000000       0.00000000       0.00000000   -2152.28710938
Cd       0.00000000       0.00000000       0.47393939       0.00000000       0.00000000    2152.28710938
2
Properties=species:S:1:pos:R:3:forces:R:3 energy=521.8770439443488 pbc="F F F"
Cd       0.00000000       0.00000000       0.00000000       0.00000000       0.00000000   -1183.23034668
Cd       0.00000000       0.00000000       0.53272727       0.00000000       0.00000000    1183.23034668
2
Properties=species:S:1:pos:R:3:forces:R:3 energy=467.9472344247214 pbc="F F F"
Cd       0.00000000       0.00000000       0.00000000       0.00000000       0.00000000    -707.40600586
Cd       0.00000000       0.00000000       0.59151515       0.00000000       0.00000000     707.40600586
2
Properties=species:S:1:pos:R:3:forces:R:3 energy=433.9092401286548 pbc="F F F"
Cd       0.00000000       0.00000000       0.00000000       0.00000000       0.00000000    -480.36190796
Cd       0.00000000       0.00000000       0.65030303       0.00000000       0.00000000     480.36190796
2
Properties=species:S:1:pos:R:3:forces:R:3 energy=408.9041438324921 pbc="F F F"
Cd       0.00000000       0.00000000       0.00000000       0.00000000       0.00000000    -383.80432129
Cd       0.00000000       0.00000000       0.70909091       0.00000000       0.00000000     383.80432129
2
Properties=species:S:1:pos:R:3:forces:R:3 energy=386.7748715806308 pbc="F F F"
Cd       0.00000000       0.00000000       0.00000000       0.00000000       0.00000000    -369.85723877
Cd       0.00000000       0.00000000       0.76787879       0.00000000       0.00000000     369.85723877
2
Properties=species:S:1:pos:R:3:forces:R:3 energy=364.7373963051399 pbc="F F F"
Cd       0.00000000       0.00000000       0.00000000       0.00000000       0.00000000    -392.16540527
Cd       0.00000000       0.00000000       0.82666667       0.00000000       0.00000000     392.16540527
2
Properties=species:S:1:pos:R:3:forces:R:3 energy=338.96402027745563 pbc="F F F"
Cd       0.00000000       0.00000000       0.00000000       0.00000000       0.00000000    -497.17236328
Cd       0.00000000       0.00000000       0.88545455       0.00000000       0.00000000     497.17236328
2
Properties=species:S:1:pos:R:3:forces:R:3 energy=306.05810659487594 pbc="F F F"
Cd       0.00000000       0.00000000       0.00000000       0.00000000       0.00000000    -614.18188477
Cd       0.00000000       0.00000000       0.94424242       0.00000000       0.00000000     614.18188477
2
Properties=species:S:1:pos:R:3:forces:R:3 energy=267.8764363076098 pbc="F F F"
Cd       0.00000000       0.00000000       0.00000000       0.00000000       0.00000000    -676.59436035
Cd       0.00000000       0.00000000       1.00303030       0.00000000       0.00000000     676.59436035
2
Properties=species:S:1:pos:R:3:forces:R:3 energy=227.39979866358394 pbc="F F F"
Cd       0.00000000       0.00000000       0.00000000       0.00000000       0.00000000    -692.96936035
Cd       0.00000000       0.00000000       1.06181818       0.00000000       0.00000000     692.96936035
2
Properties=species:S:1:pos:R:3:forces:R:3 energy=187.20175637356766 pbc="F F F"
Cd       0.00000000       0.00000000       0.00000000       0.00000000       0.00000000    -668.42346191
Cd       0.00000000       0.00000000       1.12060606       0.00000000       0.00000000     668.42346191
2
Properties=species:S:1:pos:R:3:forces:R:3 energy=149.67632197426408 pbc="F F F"
Cd       0.00000000       0.00000000       0.00000000       0.00000000       0.00000000    -598.46575928
Cd       0.00000000       0.00000000       1.17939394       0.00000000       0.00000000     598.46575928
2
Properties=species:S:1:pos:R:3:forces:R:3 energy=117.89402933849182 pbc="F F F"
Cd       0.00000000       0.00000000       0.00000000       0.00000000       0.00000000    -480.00366211
Cd       0.00000000       0.00000000       1.23818182       0.00000000       0.00000000     480.00366211
2
Properties=species:S:1:pos:R:3:forces:R:3 energy=92.52601354802988 pbc="F F F"
Cd       0.00000000       0.00000000       0.00000000       0.00000000       0.00000000    -392.56771851
Cd       0.00000000       0.00000000       1.29696970       0.00000000       0.00000000     392.56771851
2
Properties=species:S:1:pos:R:3:forces:R:3 energy=71.11654813773421 pbc="F F F"
Cd       0.00000000       0.00000000       0.00000000       0.00000000       0.00000000    -336.63308716
Cd       0.00000000       0.00000000       1.35575758       0.00000000       0.00000000     336.63308716
2
Properties=species:S:1:pos:R:3:forces:R:3 energy=53.023009383635674 pbc="F F F"
Cd       0.00000000       0.00000000       0.00000000       0.00000000       0.00000000    -277.98562622
Cd       0.00000000       0.00000000       1.41454545       0.00000000       0.00000000     277.98562622
2
Properties=species:S:1:pos:R:3:forces:R:3 energy=38.54629318889632 pbc="F F F"
Cd       0.00000000       0.00000000       0.00000000       0.00000000       0.00000000    -213.89900208
Cd       0.00000000       0.00000000       1.47333333       0.00000000       0.00000000     213.89900208
2
Properties=species:S:1:pos:R:3:forces:R:3 energy=27.739775047914723 pbc="F F F"
Cd       0.00000000       0.00000000       0.00000000       0.00000000       0.00000000    -156.78201294
Cd       0.00000000       0.00000000       1.53212121       0.00000000       0.00000000     156.78201294
2
Properties=species:S:1:pos:R:3:forces:R:3 energy=19.774050392687503 pbc="F F F"
Cd       0.00000000       0.00000000       0.00000000       0.00000000       0.00000000    -115.68245697
Cd       0.00000000       0.00000000       1.59090909       0.00000000       0.00000000     115.68245697
2
Properties=species:S:1:pos:R:3:forces:R:3 energy=14.039034055798973 pbc="F F F"
Cd       0.00000000       0.00000000       0.00000000       0.00000000       0.00000000     -80.77452087
Cd       0.00000000       0.00000000       1.64969697       0.00000000       0.00000000      80.77452087
2
Properties=species:S:1:pos:R:3:forces:R:3 energy=10.07999726749551 pbc="F F F"
Cd       0.00000000       0.00000000       0.00000000       0.00000000       0.00000000     -55.17555237
Cd       0.00000000       0.00000000       1.70848485       0.00000000       0.00000000      55.17555237
2
Properties=species:S:1:pos:R:3:forces:R:3 energy=7.459212107455125 pbc="F F F"
Cd       0.00000000       0.00000000       0.00000000       0.00000000       0.00000000     -34.77613068
Cd       0.00000000       0.00000000       1.76727273       0.00000000       0.00000000      34.77613068
2
Properties=species:S:1:pos:R:3:forces:R:3 energy=5.858953211868526 pbc="F F F"
Cd       0.00000000       0.00000000       0.00000000       0.00000000       0.00000000     -20.97904778
Cd       0.00000000       0.00000000       1.82606061       0.00000000       0.00000000      20.97904778
2
Properties=species:S:1:pos:R:3:forces:R:3 energy=4.853595658799859 pbc="F F F"
Cd       0.00000000       0.00000000       0.00000000       0.00000000       0.00000000     -14.15063381
Cd       0.00000000       0.00000000       1.88484848       0.00000000       0.00000000      14.15063381
2
Properties=species:S:1:pos:R:3:forces:R:3 energy=4.11948651539057 pbc="F F F"
Cd       0.00000000       0.00000000       0.00000000       0.00000000       0.00000000     -11.22693157
Cd       0.00000000       0.00000000       1.94363636       0.00000000       0.00000000      11.22693157
2
Properties=species:S:1:pos:R:3:forces:R:3 energy=3.5051912198852597 pbc="F F F"
Cd       0.00000000       0.00000000       0.00000000       0.00000000       0.00000000      -9.79926014
Cd       0.00000000       0.00000000       2.00242424       0.00000000       0.00000000       9.79926014
2
Properties=species:S:1:pos:R:3:forces:R:3 energy=2.959636381160892 pbc="F F F"
Cd       0.00000000       0.00000000       0.00000000       0.00000000       0.00000000      -8.78751564
Cd       0.00000000       0.00000000       2.06121212       0.00000000       0.00000000       8.78751564
2
Properties=species:S:1:pos:R:3:forces:R:3 energy=2.470842578674805 pbc="F F F"
Cd       0.00000000       0.00000000       0.00000000       0.00000000       0.00000000      -7.84274673
Cd       0.00000000       0.00000000       2.12000000       0.00000000       0.00000000       7.84274673
2
Properties=species:S:1:pos:R:3:forces:R:3 energy=2.0375913869334554 pbc="F F F"
Cd       0.00000000       0.00000000       0.00000000       0.00000000       0.00000000      -6.89641571
Cd       0.00000000       0.00000000       2.17878788       0.00000000       0.00000000       6.89641571
2
Properties=species:S:1:pos:R:3:forces:R:3 energy=1.6598218332724486 pbc="F F F"
Cd       0.00000000       0.00000000       0.00000000       0.00000000       0.00000000      -5.95894766
Cd       0.00000000       0.00000000       2.23757576       0.00000000       0.00000000       5.95894766
2
Properties=species:S:1:pos:R:3:forces:R:3 energy=1.336323310957364 pbc="F F F"
Cd       0.00000000       0.00000000       0.00000000       0.00000000       0.00000000      -5.05408478
Cd       0.00000000       0.00000000       2.29636364       0.00000000       0.00000000       5.05408478
2
Properties=species:S:1:pos:R:3:forces:R:3 energy=1.0644666563535494 pbc="F F F"
Cd       0.00000000       0.00000000       0.00000000       0.00000000       0.00000000      -4.20624399
Cd       0.00000000       0.00000000       2.35515152       0.00000000       0.00000000       4.20624399
2
Properties=species:S:1:pos:R:3:forces:R:3 energy=0.8401952733214417 pbc="F F F"
Cd       0.00000000       0.00000000       0.00000000       0.00000000       0.00000000      -3.43874621
Cd       0.00000000       0.00000000       2.41393939       0.00000000       0.00000000       3.43874621
2
Properties=species:S:1:pos:R:3:forces:R:3 energy=0.6582098317311542 pbc="F F F"
Cd       0.00000000       0.00000000       0.00000000       0.00000000       0.00000000      -2.77005219
Cd       0.00000000       0.00000000       2.47272727       0.00000000       0.00000000       2.77005219
2
Properties=species:S:1:pos:R:3:forces:R:3 energy=0.5123779139064472 pbc="F F F"
Cd       0.00000000       0.00000000       0.00000000       0.00000000       0.00000000      -2.20951748
Cd       0.00000000       0.00000000       2.53151515       0.00000000       0.00000000       2.20951748
2
Properties=species:S:1:pos:R:3:forces:R:3 energy=0.39632017679210185 pbc="F F F"
Cd       0.00000000       0.00000000       0.00000000       0.00000000       0.00000000      -1.75609708
Cd       0.00000000       0.00000000       2.59030303       0.00000000       0.00000000       1.75609708
2
Properties=species:S:1:pos:R:3:forces:R:3 energy=0.3039848171159433 pbc="F F F"
Cd       0.00000000       0.00000000       0.00000000       0.00000000       0.00000000      -1.40039897
Cd       0.00000000       0.00000000       2.64909091       0.00000000       0.00000000       1.40039897
2
Properties=species:S:1:pos:R:3:forces:R:3 energy=0.23003140967414684 pbc="F F F"
Cd       0.00000000       0.00000000       0.00000000       0.00000000       0.00000000      -1.12808597
Cd       0.00000000       0.00000000       2.70787879       0.00000000       0.00000000       1.12808597
2
Properties=species:S:1:pos:R:3:forces:R:3 energy=0.1700371462746662 pbc="F F F"
Cd       0.00000000       0.00000000       0.00000000       0.00000000       0.00000000      -0.92268378
Cd       0.00000000       0.00000000       2.76666667       0.00000000       0.00000000       0.92268378
2
Properties=species:S:1:pos:R:3:forces:R:3 energy=0.12057654657571334 pbc="F F F"
Cd       0.00000000       0.00000000       0.00000000       0.00000000       0.00000000      -0.76672637
Cd       0.00000000       0.00000000       2.82545455       0.00000000       0.00000000       0.76672637
2
Properties=species:S:1:pos:R:3:forces:R:3 energy=0.07927485180869467 pbc="F F F"
Cd       0.00000000       0.00000000       0.00000000       0.00000000       0.00000000      -0.64216888
Cd       0.00000000       0.00000000       2.88424242       0.00000000       0.00000000       0.64216888
2
Properties=species:S:1:pos:R:3:forces:R:3 energy=0.04477065467978053 pbc="F F F"
Cd       0.00000000       0.00000000       0.00000000       0.00000000       0.00000000      -0.53337812
Cd       0.00000000       0.00000000       2.94303030       0.00000000       0.00000000       0.53337812
2
Properties=species:S:1:pos:R:3:forces:R:3 energy=0.01639882833179729 pbc="F F F"
Cd       0.00000000       0.00000000       0.00000000       0.00000000       0.00000000      -0.43326744
Cd       0.00000000       0.00000000       3.00181818       0.00000000       0.00000000       0.43326744
2
Properties=species:S:1:pos:R:3:forces:R:3 energy=-0.00637548792132351 pbc="F F F"
Cd       0.00000000       0.00000000       0.00000000       0.00000000       0.00000000      -0.34359092
Cd       0.00000000       0.00000000       3.06060606       0.00000000       0.00000000       0.34359092
2
Properties=species:S:1:pos:R:3:forces:R:3 energy=-0.02425509639507091 pbc="F F F"
Cd       0.00000000       0.00000000       0.00000000       0.00000000       0.00000000      -0.26685572
Cd       0.00000000       0.00000000       3.11939394       0.00000000       0.00000000       0.26685572
2
Properties=species:S:1:pos:R:3:forces:R:3 energy=-0.03799241455024237 pbc="F F F"
Cd       0.00000000       0.00000000       0.00000000       0.00000000       0.00000000      -0.20240629
Cd       0.00000000       0.00000000       3.17818182       0.00000000       0.00000000       0.20240629
2
Properties=species:S:1:pos:R:3:forces:R:3 energy=-0.048263920015985125 pbc="F F F"
Cd       0.00000000       0.00000000       0.00000000       0.00000000       0.00000000      -0.14874494
Cd       0.00000000       0.00000000       3.23696970       0.00000000       0.00000000       0.14874494
2
Properties=species:S:1:pos:R:3:forces:R:3 energy=-0.05567699527719847 pbc="F F F"
Cd       0.00000000       0.00000000       0.00000000       0.00000000       0.00000000      -0.10507232
Cd       0.00000000       0.00000000       3.29575758       0.00000000       0.00000000       0.10507232
2
Properties=species:S:1:pos:R:3:forces:R:3 energy=-0.06080182164837916 pbc="F F F"
Cd       0.00000000       0.00000000       0.00000000       0.00000000       0.00000000      -0.07076803
Cd       0.00000000       0.00000000       3.35454545       0.00000000       0.00000000       0.07076803
2
Properties=species:S:1:pos:R:3:forces:R:3 energy=-0.06415840476361613 pbc="F F F"
Cd       0.00000000       0.00000000       0.00000000       0.00000000       0.00000000      -0.04465797
Cd       0.00000000       0.00000000       3.41333333       0.00000000       0.00000000       0.04465797
2
Properties=species:S:1:pos:R:3:forces:R:3 energy=-0.06617838465519948 pbc="F F F"
Cd       0.00000000       0.00000000       0.00000000       0.00000000       0.00000000      -0.02494422
Cd       0.00000000       0.00000000       3.47212121       0.00000000       0.00000000       0.02494422
2
Properties=species:S:1:pos:R:3:forces:R:3 energy=-0.06717770249864868 pbc="F F F"
Cd       0.00000000       0.00000000       0.00000000       0.00000000       0.00000000      -0.00964602
Cd       0.00000000       0.00000000       3.53090909       0.00000000       0.00000000       0.00964602
2
Properties=species:S:1:pos:R:3:forces:R:3 energy=-0.06736603604166408 pbc="F F F"
Cd       0.00000000       0.00000000       0.00000000       0.00000000       0.00000000       0.00288457
Cd       0.00000000       0.00000000       3.58969697       0.00000000       0.00000000      -0.00288457
2
Properties=species:S:1:pos:R:3:forces:R:3 energy=-0.06687226140779018 pbc="F F F"
Cd       0.00000000       0.00000000       0.00000000       0.00000000       0.00000000       0.01368056
Cd       0.00000000       0.00000000       3.64848485       0.00000000       0.00000000      -0.01368056
2
Properties=species:S:1:pos:R:3:forces:R:3 energy=-0.06578273744674942 pbc="F F F"
Cd       0.00000000       0.00000000       0.00000000       0.00000000       0.00000000       0.02317759
Cd       0.00000000       0.00000000       3.70727273       0.00000000       0.00000000      -0.02317759
2
Properties=species:S:1:pos:R:3:forces:R:3 energy=-0.06417212962023103 pbc="F F F"
Cd       0.00000000       0.00000000       0.00000000       0.00000000       0.00000000       0.03140008
Cd       0.00000000       0.00000000       3.76606061       0.00000000       0.00000000      -0.03140008
2
Properties=species:S:1:pos:R:3:forces:R:3 energy=-0.062119055794274444 pbc="F F F"
Cd       0.00000000       0.00000000       0.00000000       0.00000000       0.00000000       0.03817850
Cd       0.00000000       0.00000000       3.82484848       0.00000000       0.00000000      -0.03817850
2
Properties=species:S:1:pos:R:3:forces:R:3 energy=-0.059715530710543224 pbc="F F F"
Cd       0.00000000       0.00000000       0.00000000       0.00000000       0.00000000       0.04330495
Cd       0.00000000       0.00000000       3.88363636       0.00000000       0.00000000      -0.04330495
2
Properties=species:S:1:pos:R:3:forces:R:3 energy=-0.05706333038407061 pbc="F F F"
Cd       0.00000000       0.00000000       0.00000000       0.00000000       0.00000000       0.04661113
Cd       0.00000000       0.00000000       3.94242424       0.00000000       0.00000000      -0.04661113
2
Properties=species:S:1:pos:R:3:forces:R:3 energy=-0.054272814957914015 pbc="F F F"
Cd       0.00000000       0.00000000       0.00000000       0.00000000       0.00000000       0.04800133
Cd       0.00000000       0.00000000       4.00121212       0.00000000       0.00000000      -0.04800133
2
Properties=species:S:1:pos:R:3:forces:R:3 energy=-0.05145733285049466 pbc="F F F"
Cd       0.00000000       0.00000000       0.00000000       0.00000000       0.00000000       0.04746619
Cd       0.00000000       0.00000000       4.06000000       0.00000000       0.00000000      -0.04746619
2
Properties=species:S:1:pos:R:3:forces:R:3 energy=-0.04872780056424492 pbc="F F F"
Cd       0.00000000       0.00000000       0.00000000       0.00000000       0.00000000       0.04509947
Cd       0.00000000       0.00000000       4.11878788       0.00000000       0.00000000      -0.04509947
2
Properties=species:S:1:pos:R:3:forces:R:3 energy=-0.04618640081753972 pbc="F F F"
Cd       0.00000000       0.00000000       0.00000000       0.00000000       0.00000000       0.04111514
Cd       0.00000000       0.00000000       4.17757576       0.00000000       0.00000000      -0.04111514
2
Properties=species:S:1:pos:R:3:forces:R:3 energy=-0.043918752745451976 pbc="F F F"
Cd       0.00000000       0.00000000       0.00000000       0.00000000       0.00000000       0.03585782
Cd       0.00000000       0.00000000       4.23636364       0.00000000       0.00000000      -0.03585782
2
Properties=species:S:1:pos:R:3:forces:R:3 energy=-0.04198635992233906 pbc="F F F"
Cd       0.00000000       0.00000000       0.00000000       0.00000000       0.00000000       0.02978850
Cd       0.00000000       0.00000000       4.29515152       0.00000000       0.00000000      -0.02978850
2
Properties=species:S:1:pos:R:3:forces:R:3 energy=-0.040421741217182006 pbc="F F F"
Cd       0.00000000       0.00000000       0.00000000       0.00000000       0.00000000       0.02344140
Cd       0.00000000       0.00000000       4.35393939       0.00000000       0.00000000      -0.02344140
2
Properties=species:S:1:pos:R:3:forces:R:3 energy=-0.03922530345682727 pbc="F F F"
Cd       0.00000000       0.00000000       0.00000000       0.00000000       0.00000000       0.01735092
Cd       0.00000000       0.00000000       4.41272727       0.00000000       0.00000000      -0.01735092
2
Properties=species:S:1:pos:R:3:forces:R:3 energy=-0.038367856934887735 pbc="F F F"
Cd       0.00000000       0.00000000       0.00000000       0.00000000       0.00000000       0.01196907
Cd       0.00000000       0.00000000       4.47151515       0.00000000       0.00000000      -0.01196907
2
Properties=species:S:1:pos:R:3:forces:R:3 energy=-0.037798165774453114 pbc="F F F"
Cd       0.00000000       0.00000000       0.00000000       0.00000000       0.00000000       0.00759022
Cd       0.00000000       0.00000000       4.53030303       0.00000000       0.00000000      -0.00759022
2
Properties=species:S:1:pos:R:3:forces:R:3 energy=-0.037453584870799306 pbc="F F F"
Cd       0.00000000       0.00000000       0.00000000       0.00000000       0.00000000       0.00431139
Cd       0.00000000       0.00000000       4.58909091       0.00000000       0.00000000      -0.00431139
2
Properties=species:S:1:pos:R:3:forces:R:3 energy=-0.03727146221752131 pbc="F F F"
Cd       0.00000000       0.00000000       0.00000000       0.00000000       0.00000000       0.00203489
Cd       0.00000000       0.00000000       4.64787879       0.00000000       0.00000000      -0.00203489
2
Properties=species:S:1:pos:R:3:forces:R:3 energy=-0.03719948031240177 pbc="F F F"
Cd       0.00000000       0.00000000       0.00000000       0.00000000       0.00000000       0.00051976
Cd       0.00000000       0.00000000       4.70666667       0.00000000       0.00000000      -0.00051976
2
Properties=species:S:1:pos:R:3:forces:R:3 energy=-0.03720145413826338 pbc="F F F"
Cd       0.00000000       0.00000000       0.00000000       0.00000000       0.00000000      -0.00053706
Cd       0.00000000       0.00000000       4.76545455       0.00000000       0.00000000       0.00053706
2
Properties=species:S:1:pos:R:3:forces:R:3 energy=-0.03725898762522862 pbc="F F F"
Cd       0.00000000       0.00000000       0.00000000       0.00000000       0.00000000      -0.00140765
Cd       0.00000000       0.00000000       4.82424242       0.00000000       0.00000000       0.00140765
2
Properties=species:S:1:pos:R:3:forces:R:3 energy=-0.037366430063376456 pbc="F F F"
Cd       0.00000000       0.00000000       0.00000000       0.00000000       0.00000000      -0.00225272
Cd       0.00000000       0.00000000       4.88303030       0.00000000       0.00000000       0.00225272
2
Properties=species:S:1:pos:R:3:forces:R:3 energy=-0.03752368589873101 pbc="F F F"
Cd       0.00000000       0.00000000       0.00000000       0.00000000       0.00000000      -0.00308217
Cd       0.00000000       0.00000000       4.94181818       0.00000000       0.00000000       0.00308217
2
Properties=species:S:1:pos:R:3:forces:R:3 energy=-0.037726248772018814 pbc="F F F"
Cd       0.00000000       0.00000000       0.00000000       0.00000000       0.00000000      -0.00376962
Cd       0.00000000       0.00000000       5.00060606       0.00000000       0.00000000       0.00376962
2
Properties=species:S:1:pos:R:3:forces:R:3 energy=-0.0379604768506353 pbc="F F F"
Cd       0.00000000       0.00000000       0.00000000       0.00000000       0.00000000      -0.00412926
Cd       0.00000000       0.00000000       5.05939394       0.00000000       0.00000000       0.00412926
2
Properties=species:S:1:pos:R:3:forces:R:3 energy=-0.03820271345663977 pbc="F F F"
Cd       0.00000000       0.00000000       0.00000000       0.00000000       0.00000000      -0.00403235
Cd       0.00000000       0.00000000       5.11818182       0.00000000       0.00000000       0.00403235
2
Properties=species:S:1:pos:R:3:forces:R:3 energy=-0.0384261572895364 pbc="F F F"
Cd       0.00000000       0.00000000       0.00000000       0.00000000       0.00000000      -0.00351664
Cd       0.00000000       0.00000000       5.17696970       0.00000000       0.00000000       0.00351664
2
Properties=species:S:1:pos:R:3:forces:R:3 energy=-0.03861237750208142 pbc="F F F"
Cd       0.00000000       0.00000000       0.00000000       0.00000000       0.00000000      -0.00281704
Cd       0.00000000       0.00000000       5.23575758       0.00000000       0.00000000       0.00281704
2
Properties=species:S:1:pos:R:3:forces:R:3 energy=-0.038759043513919664 pbc="F F F"
Cd       0.00000000       0.00000000       0.00000000       0.00000000       0.00000000      -0.00219128
Cd       0.00000000       0.00000000       5.29454545       0.00000000       0.00000000       0.00219128
2
Properties=species:S:1:pos:R:3:forces:R:3 energy=-0.038868119314402476 pbc="F F F"
Cd       0.00000000       0.00000000       0.00000000       0.00000000       0.00000000      -0.00143193
Cd       0.00000000       0.00000000       5.35333333       0.00000000       0.00000000       0.00143193
2
Properties=species:S:1:pos:R:3:forces:R:3 energy=-0.0389066717362435 pbc="F F F"
Cd       0.00000000       0.00000000       0.00000000       0.00000000       0.00000000       0.00036661
Cd       0.00000000       0.00000000       5.41212121       0.00000000       0.00000000      -0.00036661
2
Properties=species:S:1:pos:R:3:forces:R:3 energy=-0.0388035730558982 pbc="F F F"
Cd       0.00000000       0.00000000       0.00000000       0.00000000       0.00000000       0.00313853
Cd       0.00000000       0.00000000       5.47090909       0.00000000       0.00000000      -0.00313853
2
Properties=species:S:1:pos:R:3:forces:R:3 energy=-0.038569583173481393 pbc="F F F"
Cd       0.00000000       0.00000000       0.00000000       0.00000000       0.00000000       0.00434526
Cd       0.00000000       0.00000000       5.52969697       0.00000000       0.00000000      -0.00434526
2
Properties=species:S:1:pos:R:3:forces:R:3 energy=-0.03834647209585229 pbc="F F F"
Cd       0.00000000       0.00000000       0.00000000       0.00000000       0.00000000       0.00296355
Cd       0.00000000       0.00000000       5.58848485       0.00000000       0.00000000      -0.00296355
2
Properties=species:S:1:pos:R:3:forces:R:3 energy=-0.03821919390560266 pbc="F F F"
Cd       0.00000000       0.00000000       0.00000000       0.00000000       0.00000000       0.00167828
Cd       0.00000000       0.00000000       5.64727273       0.00000000       0.00000000      -0.00167828
2
Properties=species:S:1:pos:R:3:forces:R:3 energy=-0.03808920788397627 pbc="F F F"
Cd       0.00000000       0.00000000       0.00000000       0.00000000       0.00000000       0.00331412
Cd       0.00000000       0.00000000       5.70606061       0.00000000       0.00000000      -0.00331412
2
Properties=species:S:1:pos:R:3:forces:R:3 energy=-0.03778222868797543 pbc="F F F"
Cd       0.00000000       0.00000000       0.00000000       0.00000000       0.00000000       0.00724504
Cd       0.00000000       0.00000000       5.76484848       0.00000000       0.00000000      -0.00724504
2
Properties=species:S:1:pos:R:3:forces:R:3 energy=-0.03726598509769007 pbc="F F F"
Cd       0.00000000       0.00000000       0.00000000       0.00000000       0.00000000       0.00985831
Cd       0.00000000       0.00000000       5.82363636       0.00000000       0.00000000      -0.00985831
2
Properties=species:S:1:pos:R:3:forces:R:3 energy=-0.03667649289160774 pbc="F F F"
Cd       0.00000000       0.00000000       0.00000000       0.00000000       0.00000000       0.00985883
Cd       0.00000000       0.00000000       5.88242424       0.00000000       0.00000000      -0.00985883
2
Properties=species:S:1:pos:R:3:forces:R:3 energy=-0.03612745290360735 pbc="F F F"
Cd       0.00000000       0.00000000       0.00000000       0.00000000       0.00000000       0.00877860
Cd       0.00000000       0.00000000       5.94121212       0.00000000       0.00000000      -0.00877860
2
Properties=species:S:1:pos:R:3:forces:R:3 energy=-0.035638216579875565 pbc="F F F"
Cd       0.00000000       0.00000000       0.00000000       0.00000000       0.00000000       0.00797041
Cd       0.00000000       0.00000000       6.00000000       0.00000000       0.00000000      -0.00797041
