2
Properties=species:S:1:pos:R:3:forces:R:3 energy=9864.99175964675 pbc="F F F"
Cs       0.00000000       0.00000000       0.00000000       0.00000000       0.00000000 -166775.09375000
Cs       0.00000000       0.00000000       0.18000000       0.00000000       0.00000000  166775.09375000
2
Properties=species:S:1:pos:R:3:forces:R:3 energy=3965.166076053 pbc="F F F"
Cs       0.00000000       0.00000000       0.00000000       0.00000000       0.00000000  -56814.85937500
Cs       0.00000000       0.00000000       0.23878788       0.00000000       0.00000000   56814.85937500
2
Properties=species:S:1:pos:R:3:forces:R:3 energy=1797.4662469514376 pbc="F F F"
Cs       0.00000000       0.00000000       0.00000000       0.00000000       0.00000000  -22802.81054688
Cs       0.00000000       0.00000000       0.29757576       0.00000000       0.00000000   22802.81054688
2
Properties=species:S:1:pos:R:3:forces:R:3 energy=885.4673455842501 pbc="F F F"
Cs       0.00000000       0.00000000       0.00000000       0.00000000       0.00000000  -10130.74316406
Cs       0.00000000       0.00000000       0.35636364       0.00000000       0.00000000   10130.74316406
2
Properties=species:S:1:pos:R:3:forces:R:3 energy=466.871611941672 pbc="F F F"
Cs       0.00000000       0.00000000       0.00000000       0.00000000       0.00000000   -4830.83496094
Cs       0.00000000       0.00000000       0.41515152       0.00000000       0.00000000    4830.83496094
2
Properties=species:S:1:pos:R:3:forces:R:3 energy=262.12890564284385 pbc="F F F"
Cs       0.00000000       0.00000000       0.00000000       0.00000000       0.00000000   -2435.37329102
Cs       0.00000000       0.00000000       0.47393939       0.00000000       0.00000000    2435.37329102
2
Properties=species:S:1:pos:R:3:forces:R:3 energy=156.64231811922173 pbc="F F F"
Cs       0.00000000       0.00000000       0.00000000       0.00000000       0.00000000   -1287.79553223
Cs       0.00000000       0.00000000       0.53272727       0.00000000       0.00000000    1287.79553223
2
Properties=species:S:1:pos:R:3:forces:R:3 energy=99.75794159413476 pbc="F F F"
Cs       0.00000000       0.00000000       0.00000000       0.00000000       0.00000000    -710.84686279
Cs       0.00000000       0.00000000       0.59151515       0.00000000       0.00000000     710.84686279
2
Properties=species:S:1:pos:R:3:forces:R:3 energy=67.78510224024993 pbc="F F F"
Cs       0.00000000       0.00000000       0.00000000       0.00000000       0.00000000    -408.16607666
Cs       0.00000000       0.00000000       0.65030303       0.00000000       0.00000000     408.16607666
2
Properties=species:S:1:pos:R:3:forces:R:3 energy=49.11196076392556 pbc="F F F"
Cs       0.00000000       0.00000000       0.00000000       0.00000000       0.00000000    -243.18545532
Cs       0.00000000       0.00000000       0.70909091       0.00000000       0.00000000     243.18545532
2
Properties=species:S:1:pos:R:3:forces:R:3 energy=37.80185258307089 pbc="F F F"
Cs       0.00000000       0.00000000       0.00000000       0.00000000       0.00000000    -150.18533325
Cs       0.00000000       0.00000000       0.76787879       0.00000000       0.00000000     150.18533325
2
Properties=species:S:1:pos:R:3:forces:R:3 energy=30.69736231004712 pbc="F F F"
Cs       0.00000000       0.00000000       0.00000000       0.00000000       0.00000000     -96.27930450
Cs       0.00000000       0.00000000       0.82666667       0.00000000       0.00000000      96.27930450
2
Properties=species:S:1:pos:R:3:forces:R:3 energy=26.055161847995972 pbc="F F F"
Cs       0.00000000       0.00000000       0.00000000       0.00000000       0.00000000     -64.38892365
Cs       0.00000000       0.00000000       0.88545455       0.00000000       0.00000000      64.38892365
2
Properties=species:S:1:pos:R:3:forces:R:3 energy=22.878062632761985 pbc="F F F"
Cs       0.00000000       0.00000000       0.00000000       0.00000000       0.00000000     -45.32058716
Cs       0.00000000       0.00000000       0.94424242       0.00000000       0.00000000      45.32058716
2
Properties=species:S:1:pos:R:3:forces:R:3 energy=20.57716123722114 pbc="F F F"
Cs       0.00000000       0.00000000       0.00000000       0.00000000       0.00000000     -33.94717789
Cs       0.00000000       0.00000000       1.00303030       0.00000000       0.00000000      33.94717789
2
Properties=species:S:1:pos:R:3:forces:R:3 energy=18.79471153789781 pbc="F F F"
Cs       0.00000000       0.00000000       0.00000000       0.00000000       0.00000000     -27.30701447
Cs       0.00000000       0.00000000       1.06181818       0.00000000       0.00000000      27.30701447
2
Properties=species:S:1:pos:R:3:forces:R:3 energy=17.308963277768452 pbc="F F F"
Cs       0.00000000       0.00000000       0.00000000       0.00000000       0.00000000     -23.62440300
Cs       0.00000000       0.00000000       1.12060606       0.00000000       0.00000000      23.62440300
2
Properties=species:S:1:pos:R:3:forces:R:3 energy=15.981159705610859 pbc="F F F"
Cs       0.00000000       0.00000000       0.00000000       0.00000000       0.00000000     -21.78513145
Cs       0.00000000       0.00000000       1.17939394       0.00000000       0.00000000      21.78513145
2
Properties=species:S:1:pos:R:3:forces:R:3 energy=14.726262640265178 pbc="F F F"
Cs       0.00000000       0.00000000       0.00000000       0.00000000       0.00000000     -21.03841591
Cs       0.00000000       0.00000000       1.23818182       0.00000000       0.00000000      21.03841591
2
Properties=species:S:1:pos:R:3:forces:R:3 energy=13.497390406011197 pbc="F F F"
Cs       0.00000000       0.00000000       0.00000000       0.00000000       0.00000000     -20.81265068
Cs       0.00000000       0.00000000       1.29696970       0.00000000       0.00000000      20.81265068
2
Properties=species:S:1:pos:R:3:forces:R:3 energy=12.27894661941405 pbc="F F F"
Cs       0.00000000       0.00000000       0.00000000       0.00000000       0.00000000     -20.59995461
Cs       0.00000000       0.00000000       1.35575758       0.00000000       0.00000000      20.59995461
2
Properties=species:S:1:pos:R:3:forces:R:3 energy=11.084168282361324 pbc="F F F"
Cs       0.00000000       0.00000000       0.00000000       0.00000000       0.00000000     -19.94273949
Cs       0.00000000       0.00000000       1.41454545       0.00000000       0.00000000      19.94273949
2
Properties=species:S:1:pos:R:3:forces:R:3 energy=9.947414375500369 pbc="F F F"
Cs       0.00000000       0.00000000       0.00000000       0.00000000       0.00000000     -18.62919998
Cs       0.00000000       0.00000000       1.47333333       0.00000000       0.00000000      18.62919998
2
Properties=species:S:1:pos:R:3:forces:R:3 energy=8.901535171461715 pbc="F F F"
Cs       0.00000000       0.00000000       0.00000000       0.00000000       0.00000000     -16.92676353
Cs       0.00000000       0.00000000       1.53212121       0.00000000       0.00000000      16.92676353
2
Properties=species:S:1:pos:R:3:forces:R:3 energy=7.957452152476626 pbc="F F F"
Cs       0.00000000       0.00000000       0.00000000       0.00000000       0.00000000     -15.19464684
Cs       0.00000000       0.00000000       1.59090909       0.00000000       0.00000000      15.19464684
2
Properties=species:S:1:pos:R:3:forces:R:3 energy=7.11612949119854 pbc="F F F"
Cs       0.00000000       0.00000000       0.00000000       0.00000000       0.00000000     -13.40564251
Cs       0.00000000       0.00000000       1.64969697       0.00000000       0.00000000      13.40564251
2
Properties=species:S:1:pos:R:3:forces:R:3 energy=6.384127518001753 pbc="F F F"
Cs       0.00000000       0.00000000       0.00000000       0.00000000       0.00000000     -11.47855759
Cs       0.00000000       0.00000000       1.70848485       0.00000000       0.00000000      11.47855759
2
Properties=species:S:1:pos:R:3:forces:R:3 energy=5.767165904102375 pbc="F F F"
Cs       0.00000000       0.00000000       0.00000000       0.00000000       0.00000000      -9.52149963
Cs       0.00000000       0.00000000       1.76727273       0.00000000       0.00000000       9.52149963
2
Properties=species:S:1:pos:R:3:forces:R:3 energy=5.261273082313199 pbc="F F F"
Cs       0.00000000       0.00000000       0.00000000       0.00000000       0.00000000      -7.73550606
Cs       0.00000000       0.00000000       1.82606061       0.00000000       0.00000000       7.73550606
2
Properties=species:S:1:pos:R:3:forces:R:3 energy=4.850367250556223 pbc="F F F"
Cs       0.00000000       0.00000000       0.00000000       0.00000000       0.00000000      -6.31942797
Cs       0.00000000       0.00000000       1.88484848       0.00000000       0.00000000       6.31942797
2
Properties=species:S:1:pos:R:3:forces:R:3 energy=4.5085075280060805 pbc="F F F"
Cs       0.00000000       0.00000000       0.00000000       0.00000000       0.00000000      -5.39658070
Cs       0.00000000       0.00000000       1.94363636       0.00000000       0.00000000       5.39658070
2
Properties=species:S:1:pos:R:3:forces:R:3 energy=4.206400387026344 pbc="F F F"
Cs       0.00000000       0.00000000       0.00000000       0.00000000       0.00000000      -4.95080566
Cs       0.00000000       0.00000000       2.00242424       0.00000000       0.00000000       4.95080566
2
Properties=species:S:1:pos:R:3:forces:R:3 energy=3.92023808098669 pbc="F F F"
Cs       0.00000000       0.00000000       0.00000000       0.00000000       0.00000000      -4.81788731
Cs       0.00000000       0.00000000       2.06121212       0.00000000       0.00000000       4.81788731
2
Properties=species:S:1:pos:R:3:forces:R:3 energy=3.6379876368711535 pbc="F F F"
Cs       0.00000000       0.00000000       0.00000000       0.00000000       0.00000000      -4.78844023
Cs       0.00000000       0.00000000       2.12000000       0.00000000       0.00000000       4.78844023
2
Properties=species:S:1:pos:R:3:forces:R:3 energy=3.357640158739156 pbc="F F F"
Cs       0.00000000       0.00000000       0.00000000       0.00000000       0.00000000      -4.74104023
Cs       0.00000000       0.00000000       2.17878788       0.00000000       0.00000000       4.74104023
2
Properties=species:S:1:pos:R:3:forces:R:3 energy=3.081712890539696 pbc="F F F"
Cs       0.00000000       0.00000000       0.00000000       0.00000000       0.00000000      -4.63617086
Cs       0.00000000       0.00000000       2.23757576       0.00000000       0.00000000       4.63617086
2
Properties=species:S:1:pos:R:3:forces:R:3 energy=2.8133429629435254 pbc="F F F"
Cs       0.00000000       0.00000000       0.00000000       0.00000000       0.00000000      -4.49235630
Cs       0.00000000       0.00000000       2.29636364       0.00000000       0.00000000       4.49235630
2
Properties=species:S:1:pos:R:3:forces:R:3 energy=2.5529781498008624 pbc="F F F"
Cs       0.00000000       0.00000000       0.00000000       0.00000000       0.00000000      -4.37542915
Cs       0.00000000       0.00000000       2.35515152       0.00000000       0.00000000       4.37542915
2
Properties=species:S:1:pos:R:3:forces:R:3 energy=2.297382659498718 pbc="F F F"
Cs       0.00000000       0.00000000       0.00000000       0.00000000       0.00000000      -4.33339357
Cs       0.00000000       0.00000000       2.41393939       0.00000000       0.00000000       4.33339357
2
Properties=species:S:1:pos:R:3:forces:R:3 energy=2.0421875016693667 pbc="F F F"
Cs       0.00000000       0.00000000       0.00000000       0.00000000       0.00000000      -4.35590029
Cs       0.00000000       0.00000000       2.47272727       0.00000000       0.00000000       4.35590029
2
Properties=species:S:1:pos:R:3:forces:R:3 energy=1.7848819171827774 pbc="F F F"
Cs       0.00000000       0.00000000       0.00000000       0.00000000       0.00000000      -4.39642715
Cs       0.00000000       0.00000000       2.53151515       0.00000000       0.00000000       4.39642715
2
Properties=species:S:1:pos:R:3:forces:R:3 energy=1.5258843702430511 pbc="F F F"
Cs       0.00000000       0.00000000       0.00000000       0.00000000       0.00000000      -4.40619326
Cs       0.00000000       0.00000000       2.59030303       0.00000000       0.00000000       4.40619326
2
Properties=species:S:1:pos:R:3:forces:R:3 energy=1.2681760784414948 pbc="F F F"
Cs       0.00000000       0.00000000       0.00000000       0.00000000       0.00000000      -4.34723616
Cs       0.00000000       0.00000000       2.64909091       0.00000000       0.00000000       4.34723616
2
Properties=species:S:1:pos:R:3:forces:R:3 energy=1.0165833902565495 pbc="F F F"
Cs       0.00000000       0.00000000       0.00000000       0.00000000       0.00000000      -4.19558954
Cs       0.00000000       0.00000000       2.70787879       0.00000000       0.00000000       4.19558954
2
Properties=species:S:1:pos:R:3:forces:R:3 energy=0.7768228527041985 pbc="F F F"
Cs       0.00000000       0.00000000       0.00000000       0.00000000       0.00000000      -3.94531441
Cs       0.00000000       0.00000000       2.76666667       0.00000000       0.00000000       3.94531441
2
Properties=species:S:1:pos:R:3:forces:R:3 energy=0.5543854704085064 pbc="F F F"
Cs       0.00000000       0.00000000       0.00000000       0.00000000       0.00000000      -3.60996294
Cs       0.00000000       0.00000000       2.82545455       0.00000000       0.00000000       3.60996294
2
Properties=species:S:1:pos:R:3:forces:R:3 energy=0.35350393908941746 pbc="F F F"
Cs       0.00000000       0.00000000       0.00000000       0.00000000       0.00000000      -3.21736789
Cs       0.00000000       0.00000000       2.88424242       0.00000000       0.00000000       3.21736789
2
Properties=species:S:1:pos:R:3:forces:R:3 energy=0.17657143987959573 pbc="F F F"
Cs       0.00000000       0.00000000       0.00000000       0.00000000       0.00000000      -2.80069733
Cs       0.00000000       0.00000000       2.94303030       0.00000000       0.00000000       2.80069733
2
Properties=species:S:1:pos:R:3:forces:R:3 energy=0.024069578100846915 pbc="F F F"
Cs       0.00000000       0.00000000       0.00000000       0.00000000       0.00000000      -2.39095831
Cs       0.00000000       0.00000000       3.00181818       0.00000000       0.00000000       2.39095831
2
Properties=species:S:1:pos:R:3:forces:R:3 energy=-0.10517245732430938 pbc="F F F"
Cs       0.00000000       0.00000000       0.00000000       0.00000000       0.00000000      -2.01281571
Cs       0.00000000       0.00000000       3.06060606       0.00000000       0.00000000       2.01281571
2
Properties=species:S:1:pos:R:3:forces:R:3 energy=-0.21353373179311233 pbc="F F F"
Cs       0.00000000       0.00000000       0.00000000       0.00000000       0.00000000      -1.68262184
Cs       0.00000000       0.00000000       3.11939394       0.00000000       0.00000000       1.68262184
2
Properties=species:S:1:pos:R:3:forces:R:3 energy=-0.3040984062240383 pbc="F F F"
Cs       0.00000000       0.00000000       0.00000000       0.00000000       0.00000000      -1.40783405
Cs       0.00000000       0.00000000       3.17818182       0.00000000       0.00000000       1.40783405
2
Properties=species:S:1:pos:R:3:forces:R:3 energy=-0.38014586229432556 pbc="F F F"
Cs       0.00000000       0.00000000       0.00000000       0.00000000       0.00000000      -1.18823445
Cs       0.00000000       0.00000000       3.23696970       0.00000000       0.00000000       1.18823445
2
Properties=species:S:1:pos:R:3:forces:R:3 energy=-0.4447921101016165 pbc="F F F"
Cs       0.00000000       0.00000000       0.00000000       0.00000000       0.00000000      -1.01892316
Cs       0.00000000       0.00000000       3.29575758       0.00000000       0.00000000       1.01892316
2
Properties=species:S:1:pos:R:3:forces:R:3 energy=-0.5008016216980961 pbc="F F F"
Cs       0.00000000       0.00000000       0.00000000       0.00000000       0.00000000      -0.89321876
Cs       0.00000000       0.00000000       3.35454545       0.00000000       0.00000000       0.89321876
2
Properties=species:S:1:pos:R:3:forces:R:3 energy=-0.5505294102769316 pbc="F F F"
Cs       0.00000000       0.00000000       0.00000000       0.00000000       0.00000000      -0.80399841
Cs       0.00000000       0.00000000       3.41333333       0.00000000       0.00000000       0.80399841
2
Properties=species:S:1:pos:R:3:forces:R:3 energy=-0.5958937077782872 pbc="F F F"
Cs       0.00000000       0.00000000       0.00000000       0.00000000       0.00000000      -0.74338704
Cs       0.00000000       0.00000000       3.47212121       0.00000000       0.00000000       0.74338704
2
Properties=species:S:1:pos:R:3:forces:R:3 energy=-0.6383125439633722 pbc="F F F"
Cs       0.00000000       0.00000000       0.00000000       0.00000000       0.00000000      -0.70209533
Cs       0.00000000       0.00000000       3.53090909       0.00000000       0.00000000       0.70209533
2
Properties=species:S:1:pos:R:3:forces:R:3 energy=-0.6786166091755123 pbc="F F F"
Cs       0.00000000       0.00000000       0.00000000       0.00000000       0.00000000      -0.66965866
Cs       0.00000000       0.00000000       3.58969697       0.00000000       0.00000000       0.66965866
2
Properties=species:S:1:pos:R:3:forces:R:3 energy=-0.7170220118496651 pbc="F F F"
Cs       0.00000000       0.00000000       0.00000000       0.00000000       0.00000000      -0.63597339
Cs       0.00000000       0.00000000       3.64848485       0.00000000       0.00000000       0.63597339
2
Properties=species:S:1:pos:R:3:forces:R:3 energy=-0.7532142772960195 pbc="F F F"
Cs       0.00000000       0.00000000       0.00000000       0.00000000       0.00000000      -0.59342974
Cs       0.00000000       0.00000000       3.70727273       0.00000000       0.00000000       0.59342974
2
Properties=species:S:1:pos:R:3:forces:R:3 energy=-0.786550995572677 pbc="F F F"
Cs       0.00000000       0.00000000       0.00000000       0.00000000       0.00000000      -0.53861815
Cs       0.00000000       0.00000000       3.76606061       0.00000000       0.00000000       0.53861815
2
Properties=species:S:1:pos:R:3:forces:R:3 energy=-0.8163251094568236 pbc="F F F"
Cs       0.00000000       0.00000000       0.00000000       0.00000000       0.00000000      -0.47282681
Cs       0.00000000       0.00000000       3.82484848       0.00000000       0.00000000       0.47282681
2
Properties=species:S:1:pos:R:3:forces:R:3 energy=-0.8420258627876012 pbc="F F F"
Cs       0.00000000       0.00000000       0.00000000       0.00000000       0.00000000      -0.40105101
Cs       0.00000000       0.00000000       3.88363636       0.00000000       0.00000000       0.40105101
2
Properties=species:S:1:pos:R:3:forces:R:3 energy=-0.8634933202559871 pbc="F F F"
Cs       0.00000000       0.00000000       0.00000000       0.00000000       0.00000000      -0.32996386
Cs       0.00000000       0.00000000       3.94242424       0.00000000       0.00000000       0.32996386
2
Properties=species:S:1:pos:R:3:forces:R:3 energy=-0.8809543058377718 pbc="F F F"
Cs       0.00000000       0.00000000       0.00000000       0.00000000       0.00000000      -0.26557508
Cs       0.00000000       0.00000000       4.00121212       0.00000000       0.00000000       0.26557508
2
Properties=species:S:1:pos:R:3:forces:R:3 energy=-0.8949243117632351 pbc="F F F"
Cs       0.00000000       0.00000000       0.00000000       0.00000000       0.00000000      -0.21157946
Cs       0.00000000       0.00000000       4.06000000       0.00000000       0.00000000       0.21157946
2
Properties=species:S:1:pos:R:3:forces:R:3 energy=-0.9060541642765393 pbc="F F F"
Cs       0.00000000       0.00000000       0.00000000       0.00000000       0.00000000      -0.16892652
Cs       0.00000000       0.00000000       4.11878788       0.00000000       0.00000000       0.16892652
2
Properties=species:S:1:pos:R:3:forces:R:3 energy=-0.9149868071375774 pbc="F F F"
Cs       0.00000000       0.00000000       0.00000000       0.00000000       0.00000000      -0.13649893
Cs       0.00000000       0.00000000       4.17757576       0.00000000       0.00000000       0.13649893
2
Properties=species:S:1:pos:R:3:forces:R:3 energy=-0.9222631532097169 pbc="F F F"
Cs       0.00000000       0.00000000       0.00000000       0.00000000       0.00000000      -0.11223857
Cs       0.00000000       0.00000000       4.23636364       0.00000000       0.00000000       0.11223857
2
Properties=species:S:1:pos:R:3:forces:R:3 energy=-0.9283018766933294 pbc="F F F"
Cs       0.00000000       0.00000000       0.00000000       0.00000000       0.00000000      -0.09403770
Cs       0.00000000       0.00000000       4.29515152       0.00000000       0.00000000       0.09403770
2
Properties=species:S:1:pos:R:3:forces:R:3 energy=-0.9334034995037692 pbc="F F F"
Cs       0.00000000       0.00000000       0.00000000       0.00000000       0.00000000      -0.08011653
Cs       0.00000000       0.00000000       4.35393939       0.00000000       0.00000000       0.08011653
2
Properties=species:S:1:pos:R:3:forces:R:3 energy=-0.9377773743364746 pbc="F F F"
Cs       0.00000000       0.00000000       0.00000000       0.00000000       0.00000000      -0.06907228
Cs       0.00000000       0.00000000       4.41272727       0.00000000       0.00000000       0.06907228
2
Properties=species:S:1:pos:R:3:forces:R:3 energy=-0.9415613110181859 pbc="F F F"
Cs       0.00000000       0.00000000       0.00000000       0.00000000       0.00000000      -0.05990397
Cs       0.00000000       0.00000000       4.47151515       0.00000000       0.00000000       0.05990397
2
Properties=species:S:1:pos:R:3:forces:R:3 energy=-0.9448486944124694 pbc="F F F"
Cs       0.00000000       0.00000000       0.00000000       0.00000000       0.00000000      -0.05217527
Cs       0.00000000       0.00000000       4.53030303       0.00000000       0.00000000       0.05217527
2
Properties=species:S:1:pos:R:3:forces:R:3 energy=-0.9477299844676528 pbc="F F F"
Cs       0.00000000       0.00000000       0.00000000       0.00000000       0.00000000      -0.04620046
Cs       0.00000000       0.00000000       4.58909091       0.00000000       0.00000000       0.04620046
2
Properties=species:S:1:pos:R:3:forces:R:3 energy=-0.9503341211901338 pbc="F F F"
Cs       0.00000000       0.00000000       0.00000000       0.00000000       0.00000000      -0.04295401
Cs       0.00000000       0.00000000       4.64787879       0.00000000       0.00000000       0.04295401
2
Properties=species:S:1:pos:R:3:forces:R:3 energy=-0.9528539709960419 pbc="F F F"
Cs       0.00000000       0.00000000       0.00000000       0.00000000       0.00000000      -0.04344723
Cs       0.00000000       0.00000000       4.70666667       0.00000000       0.00000000       0.04344723
2
Properties=species:S:1:pos:R:3:forces:R:3 energy=-0.9555147242502862 pbc="F F F"
Cs       0.00000000       0.00000000       0.00000000       0.00000000       0.00000000      -0.04752864
Cs       0.00000000       0.00000000       4.76545455       0.00000000       0.00000000       0.04752864
2
Properties=species:S:1:pos:R:3:forces:R:3 energy=-0.9584612021063651 pbc="F F F"
Cs       0.00000000       0.00000000       0.00000000       0.00000000       0.00000000      -0.05243751
Cs       0.00000000       0.00000000       4.82424242       0.00000000       0.00000000       0.05243751
2
Properties=species:S:1:pos:R:3:forces:R:3 energy=-0.9615720121120417 pbc="F F F"
Cs       0.00000000       0.00000000       0.00000000       0.00000000       0.00000000      -0.05171468
Cs       0.00000000       0.00000000       4.88303030       0.00000000       0.00000000       0.05171468
2
Properties=species:S:1:pos:R:3:forces:R:3 energy=-0.9642356737239145 pbc="F F F"
Cs       0.00000000       0.00000000       0.00000000       0.00000000       0.00000000      -0.03534367
Cs       0.00000000       0.00000000       4.94181818       0.00000000       0.00000000       0.03534367
2
Properties=species:S:1:pos:R:3:forces:R:3 energy=-0.9651956085377099 pbc="F F F"
Cs       0.00000000       0.00000000       0.00000000       0.00000000       0.00000000       0.00806130
Cs       0.00000000       0.00000000       5.00060606       0.00000000       0.00000000      -0.00806130
2
Properties=species:S:1:pos:R:3:forces:R:3 energy=-0.9625964675213615 pbc="F F F"
Cs       0.00000000       0.00000000       0.00000000       0.00000000       0.00000000       0.08639545
Cs       0.00000000       0.00000000       5.05939394       0.00000000       0.00000000      -0.08639545
2
Properties=species:S:1:pos:R:3:forces:R:3 energy=-0.9544005283367935 pbc="F F F"
Cs       0.00000000       0.00000000       0.00000000       0.00000000       0.00000000       0.19658323
Cs       0.00000000       0.00000000       5.11818182       0.00000000       0.00000000      -0.19658323
2
Properties=species:S:1:pos:R:3:forces:R:3 energy=-0.9392836050538773 pbc="F F F"
Cs       0.00000000       0.00000000       0.00000000       0.00000000       0.00000000       0.31626049
Cs       0.00000000       0.00000000       5.17696970       0.00000000       0.00000000      -0.31626049
2
Properties=species:S:1:pos:R:3:forces:R:3 energy=-0.9178636086994806 pbc="F F F"
Cs       0.00000000       0.00000000       0.00000000       0.00000000       0.00000000       0.40305206
Cs       0.00000000       0.00000000       5.23575758       0.00000000       0.00000000      -0.40305206
2
Properties=species:S:1:pos:R:3:forces:R:3 energy=-0.8932473693742254 pbc="F F F"
Cs       0.00000000       0.00000000       0.00000000       0.00000000       0.00000000       0.42375210
Cs       0.00000000       0.00000000       5.29454545       0.00000000       0.00000000      -0.42375210
2
Properties=species:S:1:pos:R:3:forces:R:3 energy=-0.8684400276409854 pbc="F F F"
Cs       0.00000000       0.00000000       0.00000000       0.00000000       0.00000000       0.42856282
Cs       0.00000000       0.00000000       5.35333333       0.00000000       0.00000000      -0.42856282
2
Properties=species:S:1:pos:R:3:forces:R:3 energy=-0.84024836719583 pbc="F F F"
Cs       0.00000000       0.00000000       0.00000000       0.00000000       0.00000000       0.56116366
Cs       0.00000000       0.00000000       5.41212121       0.00000000       0.00000000      -0.56116366
2
Properties=species:S:1:pos:R:3:forces:R:3 energy=-0.7998977566265768 pbc="F F F"
Cs       0.00000000       0.00000000       0.00000000       0.00000000       0.00000000       0.81205732
Cs       0.00000000       0.00000000       5.47090909       0.00000000       0.00000000      -0.81205732
2
Properties=species:S:1:pos:R:3:forces:R:3 energy=-0.7477657945712097 pbc="F F F"
Cs       0.00000000       0.00000000       0.00000000       0.00000000       0.00000000       0.91932768
Cs       0.00000000       0.00000000       5.52969697       0.00000000       0.00000000      -0.91932768
2
Properties=species:S:1:pos:R:3:forces:R:3 energy=-0.6960763228245513 pbc="F F F"
Cs       0.00000000       0.00000000       0.00000000       0.00000000       0.00000000       0.82151717
Cs       0.00000000       0.00000000       5.58848485       0.00000000       0.00000000      -0.82151717
2
Properties=species:S:1:pos:R:3:forces:R:3 energy=-0.6499247417495173 pbc="F F F"
Cs       0.00000000       0.00000000       0.00000000       0.00000000       0.00000000       0.78790379
Cs       0.00000000       0.00000000       5.64727273       0.00000000       0.00000000      -0.78790379
2
Properties=species:S:1:pos:R:3:forces:R:3 energy=-0.5970453322741692 pbc="F F F"
Cs       0.00000000       0.00000000       0.00000000       0.00000000       0.00000000       1.06162024
Cs       0.00000000       0.00000000       5.70606061       0.00000000       0.00000000      -1.06162024
2
Properties=species:S:1:pos:R:3:forces:R:3 energy=-0.5239131174426473 pbc="F F F"
Cs       0.00000000       0.00000000       0.00000000       0.00000000       0.00000000       1.37388062
Cs       0.00000000       0.00000000       5.76484848       0.00000000       0.00000000      -1.37388062
2
Properties=species:S:1:pos:R:3:forces:R:3 energy=-0.44573423153418845 pbc="F F F"
Cs       0.00000000       0.00000000       0.00000000       0.00000000       0.00000000       1.19440556
Cs       0.00000000       0.00000000       5.82363636       0.00000000       0.00000000      -1.19440556
2
Properties=species:S:1:pos:R:3:forces:R:3 energy=-0.391423688844751 pbc="F F F"
Cs       0.00000000       0.00000000       0.00000000       0.00000000       0.00000000       0.63508332
Cs       0.00000000       0.00000000       5.88242424       0.00000000       0.00000000      -0.63508332
2
Properties=species:S:1:pos:R:3:forces:R:3 energy=-0.3694917412023933 pbc="F F F"
Cs       0.00000000       0.00000000       0.00000000       0.00000000       0.00000000       0.14578612
Cs       0.00000000       0.00000000       5.94121212       0.00000000       0.00000000      -0.14578612
2
Properties=species:S:1:pos:R:3:forces:R:3 energy=-0.3678941432751692 pbc="F F F"
Cs       0.00000000       0.00000000       0.00000000       0.00000000       0.00000000      -0.02732364
Cs       0.00000000       0.00000000       6.00000000       0.00000000       0.00000000       0.02732364
