2
Properties=species:S:1:pos:R:3:forces:R:3 energy=11876.548485752633 pbc="F F F"
Eu       0.00000000       0.00000000       0.00000000       0.00000000       0.00000000 -204406.46875000
Eu       0.00000000       0.00000000       0.18000000       0.00000000       0.00000000  204406.46875000
2
Properties=species:S:1:pos:R:3:forces:R:3 energy=4686.5528802838835 pbc="F F F"
Eu       0.00000000       0.00000000       0.00000000       0.00000000       0.00000000  -68678.99218750
Eu       0.00000000       0.00000000       0.23878788       0.00000000       0.00000000   68678.99218750
2
Properties=species:S:1:pos:R:3:forces:R:3 energy=2081.954735752634 pbc="F F F"
Eu       0.00000000       0.00000000       0.00000000       0.00000000       0.00000000  -27170.89257812
Eu       0.00000000       0.00000000       0.29757576       0.00000000       0.00000000   27170.89257812
2
Properties=species:S:1:pos:R:3:forces:R:3 energy=1002.163537025333 pbc="F F F"
Eu       0.00000000       0.00000000       0.00000000       0.00000000       0.00000000  -11895.17187500
Eu       0.00000000       0.00000000       0.35636364       0.00000000       0.00000000   11895.17187500
2
Properties=species:S:1:pos:R:3:forces:R:3 energy=513.6903314589267 pbc="F F F"
Eu       0.00000000       0.00000000       0.00000000       0.00000000       0.00000000   -5594.26367188
Eu       0.00000000       0.00000000       0.41515152       0.00000000       0.00000000    5594.26367188
2
Properties=species:S:1:pos:R:3:forces:R:3 energy=277.8911981613133 pbc="F F F"
Eu       0.00000000       0.00000000       0.00000000       0.00000000       0.00000000   -2786.57031250
Eu       0.00000000       0.00000000       0.47393939       0.00000000       0.00000000    2786.57031250
2
Properties=species:S:1:pos:R:3:forces:R:3 energy=157.73604680046145 pbc="F F F"
Eu       0.00000000       0.00000000       0.00000000       0.00000000       0.00000000   -1459.40686035
Eu       0.00000000       0.00000000       0.53272727       0.00000000       0.00000000    1459.40686035
2
Properties=species:S:1:pos:R:3:forces:R:3 energy=93.48354436539086 pbc="F F F"
Eu       0.00000000       0.00000000       0.00000000       0.00000000       0.00000000    -800.16558838
Eu       0.00000000       0.00000000       0.59151515       0.00000000       0.00000000     800.16558838
2
Properties=species:S:1:pos:R:3:forces:R:3 energy=57.55450156190003 pbc="F F F"
Eu       0.00000000       0.00000000       0.00000000       0.00000000       0.00000000    -458.11547852
Eu       0.00000000       0.00000000       0.65030303       0.00000000       0.00000000     458.11547852
2
Properties=species:S:1:pos:R:3:forces:R:3 energy=36.57960991830931 pbc="F F F"
Eu       0.00000000       0.00000000       0.00000000       0.00000000       0.00000000    -273.80532837
Eu       0.00000000       0.00000000       0.70909091       0.00000000       0.00000000     273.80532837
2
Properties=species:S:1:pos:R:3:forces:R:3 energy=23.7791758374387 pbc="F F F"
Eu       0.00000000       0.00000000       0.00000000       0.00000000       0.00000000    -171.43719482
Eu       0.00000000       0.00000000       0.76787879       0.00000000       0.00000000     171.43719482
2
Properties=species:S:1:pos:R:3:forces:R:3 energy=15.56374848310657 pbc="F F F"
Eu       0.00000000       0.00000000       0.00000000       0.00000000       0.00000000    -113.47265625
Eu       0.00000000       0.00000000       0.82666667       0.00000000       0.00000000     113.47265625
2
Properties=species:S:1:pos:R:3:forces:R:3 energy=9.951804347854615 pbc="F F F"
Eu       0.00000000       0.00000000       0.00000000       0.00000000       0.00000000     -80.57846069
Eu       0.00000000       0.00000000       0.88545455       0.00000000       0.00000000      80.57846069
2
Properties=species:S:1:pos:R:3:forces:R:3 energy=5.80388573538176 pbc="F F F"
Eu       0.00000000       0.00000000       0.00000000       0.00000000       0.00000000     -62.41501236
Eu       0.00000000       0.00000000       0.94424242       0.00000000       0.00000000      62.41501236
2
Properties=species:S:1:pos:R:3:forces:R:3 energy=2.438630503091863 pbc="F F F"
Eu       0.00000000       0.00000000       0.00000000       0.00000000       0.00000000     -53.23942947
Eu       0.00000000       0.00000000       1.00303030       0.00000000       0.00000000      53.23942947
2
Properties=species:S:1:pos:R:3:forces:R:3 energy=-0.5637649588963756 pbc="F F F"
Eu       0.00000000       0.00000000       0.00000000       0.00000000       0.00000000     -49.59139633
Eu       0.00000000       0.00000000       1.06181818       0.00000000       0.00000000      49.59139633
2
Properties=species:S:1:pos:R:3:forces:R:3 energy=-3.4431220751004856 pbc="F F F"
Eu       0.00000000       0.00000000       0.00000000       0.00000000       0.00000000     -48.49756241
Eu       0.00000000       0.00000000       1.12060606       0.00000000       0.00000000      48.49756241
2
Properties=species:S:1:pos:R:3:forces:R:3 energy=-6.23757063619991 pbc="F F F"
Eu       0.00000000       0.00000000       0.00000000       0.00000000       0.00000000     -45.97869873
Eu       0.00000000       0.00000000       1.17939394       0.00000000       0.00000000      45.97869873
2
Properties=species:S:1:pos:R:3:forces:R:3 energy=-8.765997386420334 pbc="F F F"
Eu       0.00000000       0.00000000       0.00000000       0.00000000       0.00000000     -39.44515610
Eu       0.00000000       0.00000000       1.23818182       0.00000000       0.00000000      39.44515610
2
Properties=species:S:1:pos:R:3:forces:R:3 energy=-10.832540487180752 pbc="F F F"
Eu       0.00000000       0.00000000       0.00000000       0.00000000       0.00000000     -30.63378906
Eu       0.00000000       0.00000000       1.29696970       0.00000000       0.00000000      30.63378906
2
Properties=species:S:1:pos:R:3:forces:R:3 energy=-12.347921692008217 pbc="F F F"
Eu       0.00000000       0.00000000       0.00000000       0.00000000       0.00000000     -20.85310173
Eu       0.00000000       0.00000000       1.35575758       0.00000000       0.00000000      20.85310173
2
Properties=species:S:1:pos:R:3:forces:R:3 energy=-13.287362615806927 pbc="F F F"
Eu       0.00000000       0.00000000       0.00000000       0.00000000       0.00000000     -11.12196732
Eu       0.00000000       0.00000000       1.41454545       0.00000000       0.00000000      11.12196732
2
Properties=species:S:1:pos:R:3:forces:R:3 energy=-13.653853943219266 pbc="F F F"
Eu       0.00000000       0.00000000       0.00000000       0.00000000       0.00000000      -1.49674773
Eu       0.00000000       0.00000000       1.47333333       0.00000000       0.00000000       1.49674773
2
Properties=species:S:1:pos:R:3:forces:R:3 energy=-13.535251938459446 pbc="F F F"
Eu       0.00000000       0.00000000       0.00000000       0.00000000       0.00000000       4.48642683
Eu       0.00000000       0.00000000       1.53212121       0.00000000       0.00000000      -4.48642683
2
Properties=species:S:1:pos:R:3:forces:R:3 energy=-13.260419701098854 pbc="F F F"
Eu       0.00000000       0.00000000       0.00000000       0.00000000       0.00000000       3.87708902
Eu       0.00000000       0.00000000       1.59090909       0.00000000       0.00000000      -3.87708902
2
Properties=species:S:1:pos:R:3:forces:R:3 energy=-13.151557001924504 pbc="F F F"
Eu       0.00000000       0.00000000       0.00000000       0.00000000       0.00000000      -0.37333992
Eu       0.00000000       0.00000000       1.64969697       0.00000000       0.00000000       0.37333992
2
Properties=species:S:1:pos:R:3:forces:R:3 energy=-13.289082389653487 pbc="F F F"
Eu       0.00000000       0.00000000       0.00000000       0.00000000       0.00000000      -3.98928428
Eu       0.00000000       0.00000000       1.70848485       0.00000000       0.00000000       3.98928428
2
Properties=species:S:1:pos:R:3:forces:R:3 energy=-13.58703636008444 pbc="F F F"
Eu       0.00000000       0.00000000       0.00000000       0.00000000       0.00000000      -5.96269512
Eu       0.00000000       0.00000000       1.76727273       0.00000000       0.00000000       5.96269512
2
Properties=species:S:1:pos:R:3:forces:R:3 energy=-13.9783431204908 pbc="F F F"
Eu       0.00000000       0.00000000       0.00000000       0.00000000       0.00000000      -7.29160404
Eu       0.00000000       0.00000000       1.82606061       0.00000000       0.00000000       7.29160404
2
Properties=species:S:1:pos:R:3:forces:R:3 energy=-14.437922867671986 pbc="F F F"
Eu       0.00000000       0.00000000       0.00000000       0.00000000       0.00000000      -8.28384781
Eu       0.00000000       0.00000000       1.88484848       0.00000000       0.00000000       8.28384781
2
Properties=species:S:1:pos:R:3:forces:R:3 energy=-14.94466021622507 pbc="F F F"
Eu       0.00000000       0.00000000       0.00000000       0.00000000       0.00000000      -8.88768673
Eu       0.00000000       0.00000000       1.94363636       0.00000000       0.00000000       8.88768673
2
Properties=species:S:1:pos:R:3:forces:R:3 energy=-15.475071845433357 pbc="F F F"
Eu       0.00000000       0.00000000       0.00000000       0.00000000       0.00000000      -9.09447765
Eu       0.00000000       0.00000000       2.00242424       0.00000000       0.00000000       9.09447765
2
Properties=species:S:1:pos:R:3:forces:R:3 energy=-16.007271699675954 pbc="F F F"
Eu       0.00000000       0.00000000       0.00000000       0.00000000       0.00000000      -8.96125031
Eu       0.00000000       0.00000000       2.06121212       0.00000000       0.00000000       8.96125031
2
Properties=species:S:1:pos:R:3:forces:R:3 energy=-16.523591976888895 pbc="F F F"
Eu       0.00000000       0.00000000       0.00000000       0.00000000       0.00000000      -8.56660175
Eu       0.00000000       0.00000000       2.12000000       0.00000000       0.00000000       8.56660175
2
Properties=species:S:1:pos:R:3:forces:R:3 energy=-17.010511336894353 pbc="F F F"
Eu       0.00000000       0.00000000       0.00000000       0.00000000       0.00000000      -7.96776438
Eu       0.00000000       0.00000000       2.17878788       0.00000000       0.00000000       7.96776438
2
Properties=species:S:1:pos:R:3:forces:R:3 energy=-17.457087336425 pbc="F F F"
Eu       0.00000000       0.00000000       0.00000000       0.00000000       0.00000000      -7.19984436
Eu       0.00000000       0.00000000       2.23757576       0.00000000       0.00000000       7.19984436
2
Properties=species:S:1:pos:R:3:forces:R:3 energy=-17.854597635336937 pbc="F F F"
Eu       0.00000000       0.00000000       0.00000000       0.00000000       0.00000000      -6.30844259
Eu       0.00000000       0.00000000       2.29636364       0.00000000       0.00000000       6.30844259
2
Properties=species:S:1:pos:R:3:forces:R:3 energy=-18.197768471681233 pbc="F F F"
Eu       0.00000000       0.00000000       0.00000000       0.00000000       0.00000000      -5.36422205
Eu       0.00000000       0.00000000       2.35515152       0.00000000       0.00000000       5.36422205
2
Properties=species:S:1:pos:R:3:forces:R:3 energy=-18.485760916170378 pbc="F F F"
Eu       0.00000000       0.00000000       0.00000000       0.00000000       0.00000000      -4.44273758
Eu       0.00000000       0.00000000       2.41393939       0.00000000       0.00000000       4.44273758
2
Properties=species:S:1:pos:R:3:forces:R:3 energy=-18.721703587602352 pbc="F F F"
Eu       0.00000000       0.00000000       0.00000000       0.00000000       0.00000000      -3.60074425
Eu       0.00000000       0.00000000       2.47272727       0.00000000       0.00000000       3.60074425
2
Properties=species:S:1:pos:R:3:forces:R:3 energy=-18.911317720593424 pbc="F F F"
Eu       0.00000000       0.00000000       0.00000000       0.00000000       0.00000000      -2.87021899
Eu       0.00000000       0.00000000       2.53151515       0.00000000       0.00000000       2.87021899
2
Properties=species:S:1:pos:R:3:forces:R:3 energy=-19.06161267849748 pbc="F F F"
Eu       0.00000000       0.00000000       0.00000000       0.00000000       0.00000000      -2.26393509
Eu       0.00000000       0.00000000       2.59030303       0.00000000       0.00000000       2.26393509
2
Properties=species:S:1:pos:R:3:forces:R:3 energy=-19.179932795444632 pbc="F F F"
Eu       0.00000000       0.00000000       0.00000000       0.00000000       0.00000000      -1.78139949
Eu       0.00000000       0.00000000       2.64909091       0.00000000       0.00000000       1.78139949
2
Properties=species:S:1:pos:R:3:forces:R:3 energy=-19.273290247814842 pbc="F F F"
Eu       0.00000000       0.00000000       0.00000000       0.00000000       0.00000000      -1.41227138
Eu       0.00000000       0.00000000       2.70787879       0.00000000       0.00000000       1.41227138
2
Properties=species:S:1:pos:R:3:forces:R:3 energy=-19.347868006025525 pbc="F F F"
Eu       0.00000000       0.00000000       0.00000000       0.00000000       0.00000000      -1.13927877
Eu       0.00000000       0.00000000       2.76666667       0.00000000       0.00000000       1.13927877
2
Properties=species:S:1:pos:R:3:forces:R:3 energy=-19.408717627319362 pbc="F F F"
Eu       0.00000000       0.00000000       0.00000000       0.00000000       0.00000000      -0.94168776
Eu       0.00000000       0.00000000       2.82545455       0.00000000       0.00000000       0.94168776
2
Properties=species:S:1:pos:R:3:forces:R:3 energy=-19.459657602094712 pbc="F F F"
Eu       0.00000000       0.00000000       0.00000000       0.00000000       0.00000000      -0.79876822
Eu       0.00000000       0.00000000       2.88424242       0.00000000       0.00000000       0.79876822
2
Properties=species:S:1:pos:R:3:forces:R:3 energy=-19.503347790867746 pbc="F F F"
Eu       0.00000000       0.00000000       0.00000000       0.00000000       0.00000000      -0.69243819
Eu       0.00000000       0.00000000       2.94303030       0.00000000       0.00000000       0.69243819
2
Properties=species:S:1:pos:R:3:forces:R:3 energy=-19.541513597445885 pbc="F F F"
Eu       0.00000000       0.00000000       0.00000000       0.00000000       0.00000000      -0.60887611
Eu       0.00000000       0.00000000       3.00181818       0.00000000       0.00000000       0.60887611
2
Properties=species:S:1:pos:R:3:forces:R:3 energy=-19.5752037296187 pbc="F F F"
Eu       0.00000000       0.00000000       0.00000000       0.00000000       0.00000000      -0.53900647
Eu       0.00000000       0.00000000       3.06060606       0.00000000       0.00000000       0.53900647
2
Properties=species:S:1:pos:R:3:forces:R:3 energy=-19.605057933431752 pbc="F F F"
Eu       0.00000000       0.00000000       0.00000000       0.00000000       0.00000000      -0.47790959
Eu       0.00000000       0.00000000       3.11939394       0.00000000       0.00000000       0.47790959
2
Properties=species:S:1:pos:R:3:forces:R:3 energy=-19.631524464178273 pbc="F F F"
Eu       0.00000000       0.00000000       0.00000000       0.00000000       0.00000000      -0.42353600
Eu       0.00000000       0.00000000       3.17818182       0.00000000       0.00000000       0.42353600
2
Properties=species:S:1:pos:R:3:forces:R:3 energy=-19.654978434491472 pbc="F F F"
Eu       0.00000000       0.00000000       0.00000000       0.00000000       0.00000000      -0.37544864
Eu       0.00000000       0.00000000       3.23696970       0.00000000       0.00000000       0.37544864
2
Properties=species:S:1:pos:R:3:forces:R:3 energy=-19.67580034125558 pbc="F F F"
Eu       0.00000000       0.00000000       0.00000000       0.00000000       0.00000000      -0.33409053
Eu       0.00000000       0.00000000       3.29575758       0.00000000       0.00000000       0.33409053
2
Properties=species:S:1:pos:R:3:forces:R:3 energy=-19.694414482744154 pbc="F F F"
Eu       0.00000000       0.00000000       0.00000000       0.00000000       0.00000000      -0.30067241
Eu       0.00000000       0.00000000       3.35454545       0.00000000       0.00000000       0.30067241
2
Properties=species:S:1:pos:R:3:forces:R:3 energy=-19.711345583789818 pbc="F F F"
Eu       0.00000000       0.00000000       0.00000000       0.00000000       0.00000000      -0.27715126
Eu       0.00000000       0.00000000       3.41333333       0.00000000       0.00000000       0.27715126
2
Properties=species:S:1:pos:R:3:forces:R:3 energy=-19.727230926973796 pbc="F F F"
Eu       0.00000000       0.00000000       0.00000000       0.00000000       0.00000000      -0.26526645
Eu       0.00000000       0.00000000       3.47212121       0.00000000       0.00000000       0.26526645
2
Properties=species:S:1:pos:R:3:forces:R:3 energy=-19.74272694976791 pbc="F F F"
Eu       0.00000000       0.00000000       0.00000000       0.00000000       0.00000000      -0.26286966
Eu       0.00000000       0.00000000       3.53090909       0.00000000       0.00000000       0.26286966
2
Properties=species:S:1:pos:R:3:forces:R:3 energy=-19.758086812312513 pbc="F F F"
Eu       0.00000000       0.00000000       0.00000000       0.00000000       0.00000000      -0.25734115
Eu       0.00000000       0.00000000       3.58969697       0.00000000       0.00000000       0.25734115
2
Properties=species:S:1:pos:R:3:forces:R:3 energy=-19.772447070712726 pbc="F F F"
Eu       0.00000000       0.00000000       0.00000000       0.00000000       0.00000000      -0.22455467
Eu       0.00000000       0.00000000       3.64848485       0.00000000       0.00000000       0.22455467
2
Properties=species:S:1:pos:R:3:forces:R:3 energy=-19.783604350284996 pbc="F F F"
Eu       0.00000000       0.00000000       0.00000000       0.00000000       0.00000000      -0.14792550
Eu       0.00000000       0.00000000       3.70727273       0.00000000       0.00000000       0.14792550
2
Properties=species:S:1:pos:R:3:forces:R:3 energy=-19.789243934953355 pbc="F F F"
Eu       0.00000000       0.00000000       0.00000000       0.00000000       0.00000000      -0.04162024
Eu       0.00000000       0.00000000       3.76606061       0.00000000       0.00000000       0.04162024
2
Properties=species:S:1:pos:R:3:forces:R:3 energy=-19.78854753894087 pbc="F F F"
Eu       0.00000000       0.00000000       0.00000000       0.00000000       0.00000000       0.06282089
Eu       0.00000000       0.00000000       3.82484848       0.00000000       0.00000000      -0.06282089
2
Properties=species:S:1:pos:R:3:forces:R:3 energy=-19.782262744210673 pbc="F F F"
Eu       0.00000000       0.00000000       0.00000000       0.00000000       0.00000000       0.14718148
Eu       0.00000000       0.00000000       3.88363636       0.00000000       0.00000000      -0.14718148
2
Properties=species:S:1:pos:R:3:forces:R:3 energy=-19.771646669682017 pbc="F F F"
Eu       0.00000000       0.00000000       0.00000000       0.00000000       0.00000000       0.21110612
Eu       0.00000000       0.00000000       3.94242424       0.00000000       0.00000000      -0.21110612
2
Properties=species:S:1:pos:R:3:forces:R:3 energy=-19.75773289891 pbc="F F F"
Eu       0.00000000       0.00000000       0.00000000       0.00000000       0.00000000       0.26020530
Eu       0.00000000       0.00000000       4.00121212       0.00000000       0.00000000      -0.26020530
2
Properties=species:S:1:pos:R:3:forces:R:3 energy=-19.741256416389398 pbc="F F F"
Eu       0.00000000       0.00000000       0.00000000       0.00000000       0.00000000       0.29884112
Eu       0.00000000       0.00000000       4.06000000       0.00000000       0.00000000      -0.29884112
2
Properties=species:S:1:pos:R:3:forces:R:3 energy=-19.722754534629672 pbc="F F F"
Eu       0.00000000       0.00000000       0.00000000       0.00000000       0.00000000       0.32936084
Eu       0.00000000       0.00000000       4.11878788       0.00000000       0.00000000      -0.32936084
2
Properties=species:S:1:pos:R:3:forces:R:3 energy=-19.702661941112616 pbc="F F F"
Eu       0.00000000       0.00000000       0.00000000       0.00000000       0.00000000       0.35316449
Eu       0.00000000       0.00000000       4.17757576       0.00000000       0.00000000      -0.35316449
2
Properties=species:S:1:pos:R:3:forces:R:3 energy=-19.681338807569567 pbc="F F F"
Eu       0.00000000       0.00000000       0.00000000       0.00000000       0.00000000       0.37143371
Eu       0.00000000       0.00000000       4.23636364       0.00000000       0.00000000      -0.37143371
2
Properties=species:S:1:pos:R:3:forces:R:3 energy=-19.659076360233186 pbc="F F F"
Eu       0.00000000       0.00000000       0.00000000       0.00000000       0.00000000       0.38531804
Eu       0.00000000       0.00000000       4.29515152       0.00000000       0.00000000      -0.38531804
2
Properties=species:S:1:pos:R:3:forces:R:3 energy=-19.63610070464841 pbc="F F F"
Eu       0.00000000       0.00000000       0.00000000       0.00000000       0.00000000       0.39584681
Eu       0.00000000       0.00000000       4.35393939       0.00000000       0.00000000      -0.39584681
2
Properties=species:S:1:pos:R:3:forces:R:3 energy=-19.612584591923007 pbc="F F F"
Eu       0.00000000       0.00000000       0.00000000       0.00000000       0.00000000       0.40377879
Eu       0.00000000       0.00000000       4.41272727       0.00000000       0.00000000      -0.40377879
2
Properties=species:S:1:pos:R:3:forces:R:3 energy=-19.588668887087458 pbc="F F F"
Eu       0.00000000       0.00000000       0.00000000       0.00000000       0.00000000       0.40950719
Eu       0.00000000       0.00000000       4.47151515       0.00000000       0.00000000      -0.40950719
2
Properties=species:S:1:pos:R:3:forces:R:3 energy=-19.56447904432772 pbc="F F F"
Eu       0.00000000       0.00000000       0.00000000       0.00000000       0.00000000       0.41303250
Eu       0.00000000       0.00000000       4.53030303       0.00000000       0.00000000      -0.41303250
2
Properties=species:S:1:pos:R:3:forces:R:3 energy=-19.540155751276224 pbc="F F F"
Eu       0.00000000       0.00000000       0.00000000       0.00000000       0.00000000       0.41402039
Eu       0.00000000       0.00000000       4.58909091       0.00000000       0.00000000      -0.41402039
2
Properties=species:S:1:pos:R:3:forces:R:3 energy=-19.5158591491904 pbc="F F F"
Eu       0.00000000       0.00000000       0.00000000       0.00000000       0.00000000       0.41199940
Eu       0.00000000       0.00000000       4.64787879       0.00000000       0.00000000      -0.41199940
2
Properties=species:S:1:pos:R:3:forces:R:3 energy=-19.491780593826675 pbc="F F F"
Eu       0.00000000       0.00000000       0.00000000       0.00000000       0.00000000       0.40661928
Eu       0.00000000       0.00000000       4.70666667       0.00000000       0.00000000      -0.40661928
2
Properties=species:S:1:pos:R:3:forces:R:3 energy=-19.46811531899517 pbc="F F F"
Eu       0.00000000       0.00000000       0.00000000       0.00000000       0.00000000       0.39800978
Eu       0.00000000       0.00000000       4.76545455       0.00000000       0.00000000      -0.39800978
2
Properties=species:S:1:pos:R:3:forces:R:3 energy=-19.445028965931964 pbc="F F F"
Eu       0.00000000       0.00000000       0.00000000       0.00000000       0.00000000       0.38710973
Eu       0.00000000       0.00000000       4.82424242       0.00000000       0.00000000      -0.38710973
2
Properties=species:S:1:pos:R:3:forces:R:3 energy=-19.42260945608815 pbc="F F F"
Eu       0.00000000       0.00000000       0.00000000       0.00000000       0.00000000       0.37583506
Eu       0.00000000       0.00000000       4.88303030       0.00000000       0.00000000      -0.37583506
2
Properties=species:S:1:pos:R:3:forces:R:3 energy=-19.40079482232837 pbc="F F F"
Eu       0.00000000       0.00000000       0.00000000       0.00000000       0.00000000       0.36692986
Eu       0.00000000       0.00000000       4.94181818       0.00000000       0.00000000      -0.36692986
2
Properties=species:S:1:pos:R:3:forces:R:3 energy=-19.3793613213439 pbc="F F F"
Eu       0.00000000       0.00000000       0.00000000       0.00000000       0.00000000       0.36335701
Eu       0.00000000       0.00000000       5.00060606       0.00000000       0.00000000      -0.36335701
2
Properties=species:S:1:pos:R:3:forces:R:3 energy=-19.35792570213304 pbc="F F F"
Eu       0.00000000       0.00000000       0.00000000       0.00000000       0.00000000       0.36715445
Eu       0.00000000       0.00000000       5.05939394       0.00000000       0.00000000      -0.36715445
2
Properties=species:S:1:pos:R:3:forces:R:3 energy=-19.336053975558315 pbc="F F F"
Eu       0.00000000       0.00000000       0.00000000       0.00000000       0.00000000       0.37786788
Eu       0.00000000       0.00000000       5.11818182       0.00000000       0.00000000      -0.37786788
2
Properties=species:S:1:pos:R:3:forces:R:3 energy=-19.313453733440518 pbc="F F F"
Eu       0.00000000       0.00000000       0.00000000       0.00000000       0.00000000       0.39072725
Eu       0.00000000       0.00000000       5.17696970       0.00000000       0.00000000      -0.39072725
2
Properties=species:S:1:pos:R:3:forces:R:3 energy=-19.29026413524302 pbc="F F F"
Eu       0.00000000       0.00000000       0.00000000       0.00000000       0.00000000       0.39588693
Eu       0.00000000       0.00000000       5.23575758       0.00000000       0.00000000      -0.39588693
2
Properties=species:S:1:pos:R:3:forces:R:3 energy=-19.26726763644128 pbc="F F F"
Eu       0.00000000       0.00000000       0.00000000       0.00000000       0.00000000       0.38315049
Eu       0.00000000       0.00000000       5.29454545       0.00000000       0.00000000      -0.38315049
2
Properties=species:S:1:pos:R:3:forces:R:3 energy=-19.245475992499205 pbc="F F F"
Eu       0.00000000       0.00000000       0.00000000       0.00000000       0.00000000       0.35826242
Eu       0.00000000       0.00000000       5.35333333       0.00000000       0.00000000      -0.35826242
2
Properties=species:S:1:pos:R:3:forces:R:3 energy=-19.22473390860756 pbc="F F F"
Eu       0.00000000       0.00000000       0.00000000       0.00000000       0.00000000       0.35386032
Eu       0.00000000       0.00000000       5.41212121       0.00000000       0.00000000      -0.35386032
2
Properties=species:S:1:pos:R:3:forces:R:3 energy=-19.203127812292937 pbc="F F F"
Eu       0.00000000       0.00000000       0.00000000       0.00000000       0.00000000       0.38427463
Eu       0.00000000       0.00000000       5.47090909       0.00000000       0.00000000      -0.38427463
2
Properties=species:S:1:pos:R:3:forces:R:3 energy=-19.179869599823817 pbc="F F F"
Eu       0.00000000       0.00000000       0.00000000       0.00000000       0.00000000       0.39923730
Eu       0.00000000       0.00000000       5.52969697       0.00000000       0.00000000      -0.39923730
2
Properties=species:S:1:pos:R:3:forces:R:3 energy=-19.15716758682825 pbc="F F F"
Eu       0.00000000       0.00000000       0.00000000       0.00000000       0.00000000       0.36744085
Eu       0.00000000       0.00000000       5.58848485       0.00000000       0.00000000      -0.36744085
2
Properties=species:S:1:pos:R:3:forces:R:3 energy=-19.13665425338086 pbc="F F F"
Eu       0.00000000       0.00000000       0.00000000       0.00000000       0.00000000       0.33716932
Eu       0.00000000       0.00000000       5.64727273       0.00000000       0.00000000      -0.33716932
2
Properties=species:S:1:pos:R:3:forces:R:3 energy=-19.1161432254686 pbc="F F F"
Eu       0.00000000       0.00000000       0.00000000       0.00000000       0.00000000       0.37414500
Eu       0.00000000       0.00000000       5.70606061       0.00000000       0.00000000      -0.37414500
2
Properties=species:S:1:pos:R:3:forces:R:3 energy=-19.091817174934956 pbc="F F F"
Eu       0.00000000       0.00000000       0.00000000       0.00000000       0.00000000       0.44745779
Eu       0.00000000       0.00000000       5.76484848       0.00000000       0.00000000      -0.44745779
2
Properties=species:S:1:pos:R:3:forces:R:3 energy=-19.06553874381034 pbc="F F F"
Eu       0.00000000       0.00000000       0.00000000       0.00000000       0.00000000       0.42323250
Eu       0.00000000       0.00000000       5.82363636       0.00000000       0.00000000      -0.42323250
2
Properties=species:S:1:pos:R:3:forces:R:3 energy=-19.04476240079374 pbc="F F F"
Eu       0.00000000       0.00000000       0.00000000       0.00000000       0.00000000       0.27103433
Eu       0.00000000       0.00000000       5.88242424       0.00000000       0.00000000      -0.27103433
2
Properties=species:S:1:pos:R:3:forces:R:3 energy=-19.033896236692744 pbc="F F F"
Eu       0.00000000       0.00000000       0.00000000       0.00000000       0.00000000       0.10619661
Eu       0.00000000       0.00000000       5.94121212       0.00000000       0.00000000      -0.10619661
2
Properties=species:S:1:pos:R:3:forces:R:3 energy=-19.03027538673294 pbc="F F F"
Eu       0.00000000       0.00000000       0.00000000       0.00000000       0.00000000       0.03898740
Eu       0.00000000       0.00000000       6.00000000       0.00000000       0.00000000      -0.03898740
