2
Properties=species:S:1:pos:R:3:forces:R:3 energy=1394.1655955562737 pbc="F F F"
F        0.00000000       0.00000000       0.00000000       0.00000000       0.00000000   -9048.83007812
F        0.00000000       0.00000000       0.18000000       0.00000000       0.00000000    9048.83007812
2
Properties=species:S:1:pos:R:3:forces:R:3 energy=1065.4732127441698 pbc="F F F"
F        0.00000000       0.00000000       0.00000000       0.00000000       0.00000000   -3142.96166992
F        0.00000000       0.00000000       0.23878788       0.00000000       0.00000000    3142.96166992
2
Properties=species:S:1:pos:R:3:forces:R:3 energy=954.4282908703576 pbc="F F F"
F        0.00000000       0.00000000       0.00000000       0.00000000       0.00000000   -1022.56652832
F        0.00000000       0.00000000       0.29757576       0.00000000       0.00000000    1022.56652832
2
Properties=species:S:1:pos:R:3:forces:R:3 energy=894.7233958543902 pbc="F F F"
F        0.00000000       0.00000000       0.00000000       0.00000000       0.00000000   -1701.77917480
F        0.00000000       0.00000000       0.35636364       0.00000000       0.00000000    1701.77917480
2
Properties=species:S:1:pos:R:3:forces:R:3 energy=748.687079944737 pbc="F F F"
F        0.00000000       0.00000000       0.00000000       0.00000000       0.00000000   -3198.34082031
F        0.00000000       0.00000000       0.41515152       0.00000000       0.00000000    3198.34082031
2
Properties=species:S:1:pos:R:3:forces:R:3 energy=518.8288646293369 pbc="F F F"
F        0.00000000       0.00000000       0.00000000       0.00000000       0.00000000   -4293.71337891
F        0.00000000       0.00000000       0.47393939       0.00000000       0.00000000    4293.71337891
2
Properties=species:S:1:pos:R:3:forces:R:3 energy=288.8000255492909 pbc="F F F"
F        0.00000000       0.00000000       0.00000000       0.00000000       0.00000000   -3343.14575195
F        0.00000000       0.00000000       0.53272727       0.00000000       0.00000000    3343.14575195
2
Properties=species:S:1:pos:R:3:forces:R:3 energy=140.62526669240708 pbc="F F F"
F        0.00000000       0.00000000       0.00000000       0.00000000       0.00000000   -1703.62280273
F        0.00000000       0.00000000       0.59151515       0.00000000       0.00000000    1703.62280273
2
Properties=species:S:1:pos:R:3:forces:R:3 energy=73.9400021944957 pbc="F F F"
F        0.00000000       0.00000000       0.00000000       0.00000000       0.00000000    -717.00994873
F        0.00000000       0.00000000       0.65030303       0.00000000       0.00000000     717.00994873
2
Properties=species:S:1:pos:R:3:forces:R:3 energy=45.18199528550727 pbc="F F F"
F        0.00000000       0.00000000       0.00000000       0.00000000       0.00000000    -316.36380005
F        0.00000000       0.00000000       0.70909091       0.00000000       0.00000000     316.36380005
2
Properties=species:S:1:pos:R:3:forces:R:3 energy=29.93441210965706 pbc="F F F"
F        0.00000000       0.00000000       0.00000000       0.00000000       0.00000000    -237.86004639
F        0.00000000       0.00000000       0.76787879       0.00000000       0.00000000     237.86004639
2
Properties=species:S:1:pos:R:3:forces:R:3 energy=18.54802746007415 pbc="F F F"
F        0.00000000       0.00000000       0.00000000       0.00000000       0.00000000    -146.26072693
F        0.00000000       0.00000000       0.82666667       0.00000000       0.00000000     146.26072693
2
Properties=species:S:1:pos:R:3:forces:R:3 energy=11.651686584864422 pbc="F F F"
F        0.00000000       0.00000000       0.00000000       0.00000000       0.00000000     -97.09458160
F        0.00000000       0.00000000       0.88545455       0.00000000       0.00000000      97.09458160
2
Properties=species:S:1:pos:R:3:forces:R:3 energy=6.702367851036738 pbc="F F F"
F        0.00000000       0.00000000       0.00000000       0.00000000       0.00000000     -71.79424286
F        0.00000000       0.00000000       0.94424242       0.00000000       0.00000000      71.79424286
2
Properties=species:S:1:pos:R:3:forces:R:3 energy=3.181704733639184 pbc="F F F"
F        0.00000000       0.00000000       0.00000000       0.00000000       0.00000000     -48.84744644
F        0.00000000       0.00000000       1.00303030       0.00000000       0.00000000      48.84744644
2
Properties=species:S:1:pos:R:3:forces:R:3 energy=0.8013497505744621 pbc="F F F"
F        0.00000000       0.00000000       0.00000000       0.00000000       0.00000000     -33.47516251
F        0.00000000       0.00000000       1.06181818       0.00000000       0.00000000      33.47516251
2
Properties=species:S:1:pos:R:3:forces:R:3 energy=-0.8671984647464432 pbc="F F F"
F        0.00000000       0.00000000       0.00000000       0.00000000       0.00000000     -23.88985252
F        0.00000000       0.00000000       1.12060606       0.00000000       0.00000000      23.88985252
2
Properties=species:S:1:pos:R:3:forces:R:3 energy=-2.0536146292527024 pbc="F F F"
F        0.00000000       0.00000000       0.00000000       0.00000000       0.00000000     -16.72339630
F        0.00000000       0.00000000       1.17939394       0.00000000       0.00000000      16.72339630
2
Properties=species:S:1:pos:R:3:forces:R:3 energy=-2.8575159487235138 pbc="F F F"
F        0.00000000       0.00000000       0.00000000       0.00000000       0.00000000     -10.82021809
F        0.00000000       0.00000000       1.23818182       0.00000000       0.00000000      10.82021809
2
Properties=species:S:1:pos:R:3:forces:R:3 energy=-3.3497820718173545 pbc="F F F"
F        0.00000000       0.00000000       0.00000000       0.00000000       0.00000000      -6.14034128
F        0.00000000       0.00000000       1.29696970       0.00000000       0.00000000       6.14034128
2
Properties=species:S:1:pos:R:3:forces:R:3 energy=-3.6039580488257568 pbc="F F F"
F        0.00000000       0.00000000       0.00000000       0.00000000       0.00000000      -2.69768357
F        0.00000000       0.00000000       1.35575758       0.00000000       0.00000000       2.69768357
2
Properties=species:S:1:pos:R:3:forces:R:3 energy=-3.685971893517489 pbc="F F F"
F        0.00000000       0.00000000       0.00000000       0.00000000       0.00000000      -0.22304724
F        0.00000000       0.00000000       1.41454545       0.00000000       0.00000000       0.22304724
2
Properties=species:S:1:pos:R:3:forces:R:3 energy=-3.6422892995535228 pbc="F F F"
F        0.00000000       0.00000000       0.00000000       0.00000000       0.00000000       1.63007152
F        0.00000000       0.00000000       1.47333333       0.00000000       0.00000000      -1.63007152
2
Properties=species:S:1:pos:R:3:forces:R:3 energy=-3.5010539470063953 pbc="F F F"
F        0.00000000       0.00000000       0.00000000       0.00000000       0.00000000       3.14084387
F        0.00000000       0.00000000       1.53212121       0.00000000       0.00000000      -3.14084387
2
Properties=species:S:1:pos:R:3:forces:R:3 energy=-3.2739498503244033 pbc="F F F"
F        0.00000000       0.00000000       0.00000000       0.00000000       0.00000000       4.59937048
F        0.00000000       0.00000000       1.59090909       0.00000000       0.00000000      -4.59937048
2
Properties=species:S:1:pos:R:3:forces:R:3 energy=-2.9592839984612085 pbc="F F F"
F        0.00000000       0.00000000       0.00000000       0.00000000       0.00000000       6.07580853
F        0.00000000       0.00000000       1.64969697       0.00000000       0.00000000      -6.07580853
2
Properties=species:S:1:pos:R:3:forces:R:3 energy=-2.572641150121077 pbc="F F F"
F        0.00000000       0.00000000       0.00000000       0.00000000       0.00000000       6.88360786
F        0.00000000       0.00000000       1.70848485       0.00000000       0.00000000      -6.88360786
2
Properties=species:S:1:pos:R:3:forces:R:3 energy=-2.176801193168516 pbc="F F F"
F        0.00000000       0.00000000       0.00000000       0.00000000       0.00000000       6.37147713
F        0.00000000       0.00000000       1.76727273       0.00000000       0.00000000      -6.37147713
2
Properties=species:S:1:pos:R:3:forces:R:3 energy=-1.8399378362948187 pbc="F F F"
F        0.00000000       0.00000000       0.00000000       0.00000000       0.00000000       5.03128195
F        0.00000000       0.00000000       1.82606061       0.00000000       0.00000000      -5.03128195
2
Properties=species:S:1:pos:R:3:forces:R:3 energy=-1.5843442811774309 pbc="F F F"
F        0.00000000       0.00000000       0.00000000       0.00000000       0.00000000       3.71523595
F        0.00000000       0.00000000       1.88484848       0.00000000       0.00000000      -3.71523595
2
Properties=species:S:1:pos:R:3:forces:R:3 energy=-1.3955078426285867 pbc="F F F"
F        0.00000000       0.00000000       0.00000000       0.00000000       0.00000000       2.77360559
F        0.00000000       0.00000000       1.94363636       0.00000000       0.00000000      -2.77360559
2
Properties=species:S:1:pos:R:3:forces:R:3 energy=-1.2519353154219202 pbc="F F F"
F        0.00000000       0.00000000       0.00000000       0.00000000       0.00000000       2.15134668
F        0.00000000       0.00000000       2.00242424       0.00000000       0.00000000      -2.15134668
2
Properties=species:S:1:pos:R:3:forces:R:3 energy=-1.139210808080866 pbc="F F F"
F        0.00000000       0.00000000       0.00000000       0.00000000       0.00000000       1.70236313
F        0.00000000       0.00000000       2.06121212       0.00000000       0.00000000      -1.70236313
2
Properties=species:S:1:pos:R:3:forces:R:3 energy=-1.0502739219453134 pbc="F F F"
F        0.00000000       0.00000000       0.00000000       0.00000000       0.00000000       1.33234930
F        0.00000000       0.00000000       2.12000000       0.00000000       0.00000000      -1.33234930
2
Properties=species:S:1:pos:R:3:forces:R:3 energy=-0.9816633365898388 pbc="F F F"
F        0.00000000       0.00000000       0.00000000       0.00000000       0.00000000       1.00899971
F        0.00000000       0.00000000       2.17878788       0.00000000       0.00000000      -1.00899971
2
Properties=species:S:1:pos:R:3:forces:R:3 energy=-0.930756942012578 pbc="F F F"
F        0.00000000       0.00000000       0.00000000       0.00000000       0.00000000       0.73082691
F        0.00000000       0.00000000       2.23757576       0.00000000       0.00000000      -0.73082691
2
Properties=species:S:1:pos:R:3:forces:R:3 energy=-0.8947772243314854 pbc="F F F"
F        0.00000000       0.00000000       0.00000000       0.00000000       0.00000000       0.50139177
F        0.00000000       0.00000000       2.29636364       0.00000000       0.00000000      -0.50139177
2
Properties=species:S:1:pos:R:3:forces:R:3 energy=-0.8708705369420983 pbc="F F F"
F        0.00000000       0.00000000       0.00000000       0.00000000       0.00000000       0.31949157
F        0.00000000       0.00000000       2.35515152       0.00000000       0.00000000      -0.31949157
2
Properties=species:S:1:pos:R:3:forces:R:3 energy=-0.8563944134963279 pbc="F F F"
F        0.00000000       0.00000000       0.00000000       0.00000000       0.00000000       0.17934749
F        0.00000000       0.00000000       2.41393939       0.00000000       0.00000000      -0.17934749
2
Properties=species:S:1:pos:R:3:forces:R:3 energy=-0.8491114340734894 pbc="F F F"
F        0.00000000       0.00000000       0.00000000       0.00000000       0.00000000       0.07351795
F        0.00000000       0.00000000       2.47272727       0.00000000       0.00000000      -0.07351795
2
Properties=species:S:1:pos:R:3:forces:R:3 energy=-0.847216680934786 pbc="F F F"
F        0.00000000       0.00000000       0.00000000       0.00000000       0.00000000      -0.00503160
F        0.00000000       0.00000000       2.53151515       0.00000000       0.00000000       0.00503160
2
Properties=species:S:1:pos:R:3:forces:R:3 energy=-0.8492845788917455 pbc="F F F"
F        0.00000000       0.00000000       0.00000000       0.00000000       0.00000000      -0.06220036
F        0.00000000       0.00000000       2.59030303       0.00000000       0.00000000       0.06220036
2
Properties=species:S:1:pos:R:3:forces:R:3 energy=-0.8542042278304386 pbc="F F F"
F        0.00000000       0.00000000       0.00000000       0.00000000       0.00000000      -0.10276219
F        0.00000000       0.00000000       2.64909091       0.00000000       0.00000000       0.10276219
2
Properties=species:S:1:pos:R:3:forces:R:3 energy=-0.8611169071374425 pbc="F F F"
F        0.00000000       0.00000000       0.00000000       0.00000000       0.00000000      -0.13053890
F        0.00000000       0.00000000       2.70787879       0.00000000       0.00000000       0.13053890
2
Properties=species:S:1:pos:R:3:forces:R:3 energy=-0.8693617285391164 pbc="F F F"
F        0.00000000       0.00000000       0.00000000       0.00000000       0.00000000      -0.14853826
F        0.00000000       0.00000000       2.76666667       0.00000000       0.00000000       0.14853826
2
Properties=species:S:1:pos:R:3:forces:R:3 energy=-0.8784356461366906 pbc="F F F"
F        0.00000000       0.00000000       0.00000000       0.00000000       0.00000000      -0.15908831
F        0.00000000       0.00000000       2.82545455       0.00000000       0.00000000       0.15908831
2
Properties=species:S:1:pos:R:3:forces:R:3 energy=-0.8879552454732093 pbc="F F F"
F        0.00000000       0.00000000       0.00000000       0.00000000       0.00000000      -0.16395481
F        0.00000000       0.00000000       2.88424242       0.00000000       0.00000000       0.16395481
2
Properties=species:S:1:pos:R:3:forces:R:3 energy=-0.8976283483599302 pbc="F F F"
F        0.00000000       0.00000000       0.00000000       0.00000000       0.00000000      -0.16448770
F        0.00000000       0.00000000       2.94303030       0.00000000       0.00000000       0.16448770
2
Properties=species:S:1:pos:R:3:forces:R:3 energy=-0.907231228458887 pbc="F F F"
F        0.00000000       0.00000000       0.00000000       0.00000000       0.00000000      -0.16174221
F        0.00000000       0.00000000       3.00181818       0.00000000       0.00000000       0.16174221
2
Properties=species:S:1:pos:R:3:forces:R:3 energy=-0.9165971832381823 pbc="F F F"
F        0.00000000       0.00000000       0.00000000       0.00000000       0.00000000      -0.15656219
F        0.00000000       0.00000000       3.06060606       0.00000000       0.00000000       0.15656219
2
Properties=species:S:1:pos:R:3:forces:R:3 energy=-0.9256041009638534 pbc="F F F"
F        0.00000000       0.00000000       0.00000000       0.00000000       0.00000000      -0.14960104
F        0.00000000       0.00000000       3.11939394       0.00000000       0.00000000       0.14960104
2
Properties=species:S:1:pos:R:3:forces:R:3 energy=-0.9341611253065326 pbc="F F F"
F        0.00000000       0.00000000       0.00000000       0.00000000       0.00000000      -0.14128929
F        0.00000000       0.00000000       3.17818182       0.00000000       0.00000000       0.14128929
2
Properties=species:S:1:pos:R:3:forces:R:3 energy=-0.9421938223084109 pbc="F F F"
F        0.00000000       0.00000000       0.00000000       0.00000000       0.00000000      -0.13180028
F        0.00000000       0.00000000       3.23696970       0.00000000       0.00000000       0.13180028
2
Properties=species:S:1:pos:R:3:forces:R:3 energy=-0.94963329491799 pbc="F F F"
F        0.00000000       0.00000000       0.00000000       0.00000000       0.00000000      -0.12106425
F        0.00000000       0.00000000       3.29575758       0.00000000       0.00000000       0.12106425
2
Properties=species:S:1:pos:R:3:forces:R:3 energy=-0.9563988025984417 pbc="F F F"
F        0.00000000       0.00000000       0.00000000       0.00000000       0.00000000      -0.10883819
F        0.00000000       0.00000000       3.35454545       0.00000000       0.00000000       0.10883819
2
Properties=species:S:1:pos:R:3:forces:R:3 energy=-0.9623952789293403 pbc="F F F"
F        0.00000000       0.00000000       0.00000000       0.00000000       0.00000000      -0.09484993
F        0.00000000       0.00000000       3.41333333       0.00000000       0.00000000       0.09484993
2
Properties=species:S:1:pos:R:3:forces:R:3 energy=-0.9675135064608191 pbc="F F F"
F        0.00000000       0.00000000       0.00000000       0.00000000       0.00000000      -0.07896788
F        0.00000000       0.00000000       3.47212121       0.00000000       0.00000000       0.07896788
2
Properties=species:S:1:pos:R:3:forces:R:3 energy=-0.9716450505529207 pbc="F F F"
F        0.00000000       0.00000000       0.00000000       0.00000000       0.00000000      -0.06132970
F        0.00000000       0.00000000       3.53090909       0.00000000       0.00000000       0.06132970
2
Properties=species:S:1:pos:R:3:forces:R:3 energy=-0.974699728684227 pbc="F F F"
F        0.00000000       0.00000000       0.00000000       0.00000000       0.00000000      -0.04242733
F        0.00000000       0.00000000       3.58969697       0.00000000       0.00000000       0.04242733
2
Properties=species:S:1:pos:R:3:forces:R:3 energy=-0.976624033632795 pbc="F F F"
F        0.00000000       0.00000000       0.00000000       0.00000000       0.00000000      -0.02307829
F        0.00000000       0.00000000       3.64848485       0.00000000       0.00000000       0.02307829
2
Properties=species:S:1:pos:R:3:forces:R:3 energy=-0.9774240909658506 pbc="F F F"
F        0.00000000       0.00000000       0.00000000       0.00000000       0.00000000      -0.00430477
F        0.00000000       0.00000000       3.70727273       0.00000000       0.00000000       0.00430477
2
Properties=species:S:1:pos:R:3:forces:R:3 energy=-0.9771626922707934 pbc="F F F"
F        0.00000000       0.00000000       0.00000000       0.00000000       0.00000000       0.01283603
F        0.00000000       0.00000000       3.76606061       0.00000000       0.00000000      -0.01283603
2
Properties=species:S:1:pos:R:3:forces:R:3 energy=-0.9759641431283019 pbc="F F F"
F        0.00000000       0.00000000       0.00000000       0.00000000       0.00000000       0.02746158
F        0.00000000       0.00000000       3.82484848       0.00000000       0.00000000      -0.02746158
2
Properties=species:S:1:pos:R:3:forces:R:3 energy=-0.9739943090195768 pbc="F F F"
F        0.00000000       0.00000000       0.00000000       0.00000000       0.00000000       0.03902112
F        0.00000000       0.00000000       3.88363636       0.00000000       0.00000000      -0.03902112
2
Properties=species:S:1:pos:R:3:forces:R:3 energy=-0.9714391246790828 pbc="F F F"
F        0.00000000       0.00000000       0.00000000       0.00000000       0.00000000       0.04738966
F        0.00000000       0.00000000       3.94242424       0.00000000       0.00000000      -0.04738966
2
Properties=species:S:1:pos:R:3:forces:R:3 energy=-0.9684805821342143 pbc="F F F"
F        0.00000000       0.00000000       0.00000000       0.00000000       0.00000000       0.05282376
F        0.00000000       0.00000000       4.00121212       0.00000000       0.00000000      -0.05282376
2
Properties=species:S:1:pos:R:3:forces:R:3 energy=-0.9652757684812904 pbc="F F F"
F        0.00000000       0.00000000       0.00000000       0.00000000       0.00000000       0.05585044
F        0.00000000       0.00000000       4.06000000       0.00000000       0.00000000      -0.05585044
2
Properties=species:S:1:pos:R:3:forces:R:3 energy=-0.9619486565806692 pbc="F F F"
F        0.00000000       0.00000000       0.00000000       0.00000000       0.00000000       0.05709115
F        0.00000000       0.00000000       4.11878788       0.00000000       0.00000000      -0.05709115
2
Properties=species:S:1:pos:R:3:forces:R:3 energy=-0.958586537786556 pbc="F F F"
F        0.00000000       0.00000000       0.00000000       0.00000000       0.00000000       0.05713392
F        0.00000000       0.00000000       4.17757576       0.00000000       0.00000000      -0.05713392
2
Properties=species:S:1:pos:R:3:forces:R:3 energy=-0.9552446227900174 pbc="F F F"
F        0.00000000       0.00000000       0.00000000       0.00000000       0.00000000       0.05647696
F        0.00000000       0.00000000       4.23636364       0.00000000       0.00000000      -0.05647696
2
Properties=species:S:1:pos:R:3:forces:R:3 energy=-0.9519519489134523 pbc="F F F"
F        0.00000000       0.00000000       0.00000000       0.00000000       0.00000000       0.05553097
F        0.00000000       0.00000000       4.29515152       0.00000000       0.00000000      -0.05553097
2
Properties=species:S:1:pos:R:3:forces:R:3 energy=-0.9487145509371041 pbc="F F F"
F        0.00000000       0.00000000       0.00000000       0.00000000       0.00000000       0.05464112
F        0.00000000       0.00000000       4.35393939       0.00000000       0.00000000      -0.05464112
2
Properties=species:S:1:pos:R:3:forces:R:3 energy=-0.9455206445252786 pbc="F F F"
F        0.00000000       0.00000000       0.00000000       0.00000000       0.00000000       0.05409052
F        0.00000000       0.00000000       4.41272727       0.00000000       0.00000000      -0.05409052
2
Properties=species:S:1:pos:R:3:forces:R:3 energy=-0.9423440309176897 pbc="F F F"
F        0.00000000       0.00000000       0.00000000       0.00000000       0.00000000       0.05409640
F        0.00000000       0.00000000       4.47151515       0.00000000       0.00000000      -0.05409640
2
Properties=species:S:1:pos:R:3:forces:R:3 energy=-0.9391467249290273 pbc="F F F"
F        0.00000000       0.00000000       0.00000000       0.00000000       0.00000000       0.05477965
F        0.00000000       0.00000000       4.53030303       0.00000000       0.00000000      -0.05477965
2
Properties=species:S:1:pos:R:3:forces:R:3 energy=-0.9358897998264842 pbc="F F F"
F        0.00000000       0.00000000       0.00000000       0.00000000       0.00000000       0.05612249
F        0.00000000       0.00000000       4.58909091       0.00000000       0.00000000      -0.05612249
2
Properties=species:S:1:pos:R:3:forces:R:3 energy=-0.9325391729895738 pbc="F F F"
F        0.00000000       0.00000000       0.00000000       0.00000000       0.00000000       0.05792091
F        0.00000000       0.00000000       4.64787879       0.00000000       0.00000000      -0.05792091
2
Properties=species:S:1:pos:R:3:forces:R:3 energy=-0.9290787800215425 pbc="F F F"
F        0.00000000       0.00000000       0.00000000       0.00000000       0.00000000       0.05976085
F        0.00000000       0.00000000       4.70666667       0.00000000       0.00000000      -0.05976085
2
Properties=species:S:1:pos:R:3:forces:R:3 energy=-0.9255232685093207 pbc="F F F"
F        0.00000000       0.00000000       0.00000000       0.00000000       0.00000000       0.06106363
F        0.00000000       0.00000000       4.76545455       0.00000000       0.00000000      -0.06106363
2
Properties=species:S:1:pos:R:3:forces:R:3 energy=-0.9219218736123608 pbc="F F F"
F        0.00000000       0.00000000       0.00000000       0.00000000       0.00000000       0.06120944
F        0.00000000       0.00000000       4.82424242       0.00000000       0.00000000      -0.06120944
2
Properties=species:S:1:pos:R:3:forces:R:3 energy=-0.9183581195444412 pbc="F F F"
F        0.00000000       0.00000000       0.00000000       0.00000000       0.00000000       0.05975931
F        0.00000000       0.00000000       4.88303030       0.00000000       0.00000000      -0.05975931
2
Properties=species:S:1:pos:R:3:forces:R:3 energy=-0.914927824222314 pbc="F F F"
F        0.00000000       0.00000000       0.00000000       0.00000000       0.00000000       0.05668796
F        0.00000000       0.00000000       4.94181818       0.00000000       0.00000000      -0.05668796
2
Properties=species:S:1:pos:R:3:forces:R:3 energy=-0.911714005314276 pbc="F F F"
F        0.00000000       0.00000000       0.00000000       0.00000000       0.00000000       0.05254076
F        0.00000000       0.00000000       5.00060606       0.00000000       0.00000000      -0.05254076
2
Properties=species:S:1:pos:R:3:forces:R:3 energy=-0.9087508196528179 pbc="F F F"
F        0.00000000       0.00000000       0.00000000       0.00000000       0.00000000       0.04836377
F        0.00000000       0.00000000       5.05939394       0.00000000       0.00000000      -0.04836377
2
Properties=species:S:1:pos:R:3:forces:R:3 energy=-0.906004964481822 pbc="F F F"
F        0.00000000       0.00000000       0.00000000       0.00000000       0.00000000       0.04532287
F        0.00000000       0.00000000       5.11818182       0.00000000       0.00000000      -0.04532287
2
Properties=species:S:1:pos:R:3:forces:R:3 energy=-0.9033868229806657 pbc="F F F"
F        0.00000000       0.00000000       0.00000000       0.00000000       0.00000000       0.04404467
F        0.00000000       0.00000000       5.17696970       0.00000000       0.00000000      -0.04404467
2
Properties=species:S:1:pos:R:3:forces:R:3 energy=-0.9008015452963031 pbc="F F F"
F        0.00000000       0.00000000       0.00000000       0.00000000       0.00000000       0.04400755
F        0.00000000       0.00000000       5.23575758       0.00000000       0.00000000      -0.04400755
2
Properties=species:S:1:pos:R:3:forces:R:3 energy=-0.8982202149299632 pbc="F F F"
F        0.00000000       0.00000000       0.00000000       0.00000000       0.00000000       0.04360320
F        0.00000000       0.00000000       5.29454545       0.00000000       0.00000000      -0.04360320
2
Properties=species:S:1:pos:R:3:forces:R:3 energy=-0.8957055979436936 pbc="F F F"
F        0.00000000       0.00000000       0.00000000       0.00000000       0.00000000       0.04173853
F        0.00000000       0.00000000       5.35333333       0.00000000       0.00000000      -0.04173853
2
Properties=species:S:1:pos:R:3:forces:R:3 energy=-0.8933030644805331 pbc="F F F"
F        0.00000000       0.00000000       0.00000000       0.00000000       0.00000000       0.04044163
F        0.00000000       0.00000000       5.41212121       0.00000000       0.00000000      -0.04044163
2
Properties=species:S:1:pos:R:3:forces:R:3 energy=-0.8908707162198617 pbc="F F F"
F        0.00000000       0.00000000       0.00000000       0.00000000       0.00000000       0.04290955
F        0.00000000       0.00000000       5.47090909       0.00000000       0.00000000      -0.04290955
2
Properties=species:S:1:pos:R:3:forces:R:3 energy=-0.888256410613222 pbc="F F F"
F        0.00000000       0.00000000       0.00000000       0.00000000       0.00000000       0.04536512
F        0.00000000       0.00000000       5.52969697       0.00000000       0.00000000      -0.04536512
2
Properties=species:S:1:pos:R:3:forces:R:3 energy=-0.8856499640002128 pbc="F F F"
F        0.00000000       0.00000000       0.00000000       0.00000000       0.00000000       0.04241329
F        0.00000000       0.00000000       5.58848485       0.00000000       0.00000000      -0.04241329
2
Properties=species:S:1:pos:R:3:forces:R:3 energy=-0.883330428310619 pbc="F F F"
F        0.00000000       0.00000000       0.00000000       0.00000000       0.00000000       0.03642718
F        0.00000000       0.00000000       5.64727273       0.00000000       0.00000000      -0.03642718
2
Properties=species:S:1:pos:R:3:forces:R:3 energy=-0.8813254488737379 pbc="F F F"
F        0.00000000       0.00000000       0.00000000       0.00000000       0.00000000       0.03246877
F        0.00000000       0.00000000       5.70606061       0.00000000       0.00000000      -0.03246877
2
Properties=species:S:1:pos:R:3:forces:R:3 energy=-0.8794536430980767 pbc="F F F"
F        0.00000000       0.00000000       0.00000000       0.00000000       0.00000000       0.03100147
F        0.00000000       0.00000000       5.76484848       0.00000000       0.00000000      -0.03100147
2
Properties=species:S:1:pos:R:3:forces:R:3 energy=-0.8777726489449843 pbc="F F F"
F        0.00000000       0.00000000       0.00000000       0.00000000       0.00000000       0.02511486
F        0.00000000       0.00000000       5.82363636       0.00000000       0.00000000      -0.02511486
2
Properties=species:S:1:pos:R:3:forces:R:3 energy=-0.8766154223382964 pbc="F F F"
F        0.00000000       0.00000000       0.00000000       0.00000000       0.00000000       0.01395914
F        0.00000000       0.00000000       5.88242424       0.00000000       0.00000000      -0.01395914
2
Properties=species:S:1:pos:R:3:forces:R:3 energy=-0.8761071421990178 pbc="F F F"
F        0.00000000       0.00000000       0.00000000       0.00000000       0.00000000       0.00398109
F        0.00000000       0.00000000       5.94121212       0.00000000       0.00000000      -0.00398109
2
Properties=species:S:1:pos:R:3:forces:R:3 energy=-0.8760239466452492 pbc="F F F"
F        0.00000000       0.00000000       0.00000000       0.00000000       0.00000000       0.00013400
F        0.00000000       0.00000000       6.00000000       0.00000000       0.00000000      -0.00013400
