2
Properties=species:S:1:pos:R:3:forces:R:3 energy=3725.5686309262132 pbc="F F F"
Fe       0.00000000       0.00000000       0.00000000       0.00000000       0.00000000  -52632.45703125
Fe       0.00000000       0.00000000       0.18000000       0.00000000       0.00000000   52632.45703125
2
Properties=species:S:1:pos:R:3:forces:R:3 energy=1807.5857207699632 pbc="F F F"
Fe       0.00000000       0.00000000       0.00000000       0.00000000       0.00000000  -19234.00000000
Fe       0.00000000       0.00000000       0.23878788       0.00000000       0.00000000   19234.00000000
2
Properties=species:S:1:pos:R:3:forces:R:3 energy=1051.3751494840687 pbc="F F F"
Fe       0.00000000       0.00000000       0.00000000       0.00000000       0.00000000   -8294.43652344
Fe       0.00000000       0.00000000       0.29757576       0.00000000       0.00000000    8294.43652344
2
Properties=species:S:1:pos:R:3:forces:R:3 energy=707.4891021207874 pbc="F F F"
Fe       0.00000000       0.00000000       0.00000000       0.00000000       0.00000000   -4017.45483398
Fe       0.00000000       0.00000000       0.35636364       0.00000000       0.00000000    4017.45483398
2
Properties=species:S:1:pos:R:3:forces:R:3 energy=533.2408721466543 pbc="F F F"
Fe       0.00000000       0.00000000       0.00000000       0.00000000       0.00000000   -2153.81616211
Fe       0.00000000       0.00000000       0.41515152       0.00000000       0.00000000    2153.81616211
2
Properties=species:S:1:pos:R:3:forces:R:3 energy=434.86498714955997 pbc="F F F"
Fe       0.00000000       0.00000000       0.00000000       0.00000000       0.00000000   -1306.39160156
Fe       0.00000000       0.00000000       0.47393939       0.00000000       0.00000000    1306.39160156
2
Properties=species:S:1:pos:R:3:forces:R:3 energy=369.80392149473874 pbc="F F F"
Fe       0.00000000       0.00000000       0.00000000       0.00000000       0.00000000    -961.47784424
Fe       0.00000000       0.00000000       0.53272727       0.00000000       0.00000000     961.47784424
2
Properties=species:S:1:pos:R:3:forces:R:3 energy=318.2763946709482 pbc="F F F"
Fe       0.00000000       0.00000000       0.00000000       0.00000000       0.00000000    -810.00061035
Fe       0.00000000       0.00000000       0.59151515       0.00000000       0.00000000     810.00061035
2
Properties=species:S:1:pos:R:3:forces:R:3 energy=272.83230293426186 pbc="F F F"
Fe       0.00000000       0.00000000       0.00000000       0.00000000       0.00000000    -747.47253418
Fe       0.00000000       0.00000000       0.65030303       0.00000000       0.00000000     747.47253418
2
Properties=species:S:1:pos:R:3:forces:R:3 energy=228.1688508776912 pbc="F F F"
Fe       0.00000000       0.00000000       0.00000000       0.00000000       0.00000000    -803.14251709
Fe       0.00000000       0.00000000       0.70909091       0.00000000       0.00000000     803.14251709
2
Properties=species:S:1:pos:R:3:forces:R:3 energy=180.91412079246598 pbc="F F F"
Fe       0.00000000       0.00000000       0.00000000       0.00000000       0.00000000    -792.35162354
Fe       0.00000000       0.00000000       0.76787879       0.00000000       0.00000000     792.35162354
2
Properties=species:S:1:pos:R:3:forces:R:3 energy=134.28939565340974 pbc="F F F"
Fe       0.00000000       0.00000000       0.00000000       0.00000000       0.00000000    -794.82098389
Fe       0.00000000       0.00000000       0.82666667       0.00000000       0.00000000     794.82098389
2
Properties=species:S:1:pos:R:3:forces:R:3 energy=90.55884327150953 pbc="F F F"
Fe       0.00000000       0.00000000       0.00000000       0.00000000       0.00000000    -660.37353516
Fe       0.00000000       0.00000000       0.88545455       0.00000000       0.00000000     660.37353516
2
Properties=species:S:1:pos:R:3:forces:R:3 energy=57.940263818824455 pbc="F F F"
Fe       0.00000000       0.00000000       0.00000000       0.00000000       0.00000000    -455.38513184
Fe       0.00000000       0.00000000       0.94424242       0.00000000       0.00000000     455.38513184
2
Properties=species:S:1:pos:R:3:forces:R:3 energy=36.17336908850734 pbc="F F F"
Fe       0.00000000       0.00000000       0.00000000       0.00000000       0.00000000    -289.17074585
Fe       0.00000000       0.00000000       1.00303030       0.00000000       0.00000000     289.17074585
2
Properties=species:S:1:pos:R:3:forces:R:3 energy=23.17180963760302 pbc="F F F"
Fe       0.00000000       0.00000000       0.00000000       0.00000000       0.00000000    -164.43669128
Fe       0.00000000       0.00000000       1.06181818       0.00000000       0.00000000     164.43669128
2
Properties=species:S:1:pos:R:3:forces:R:3 energy=15.354900861267044 pbc="F F F"
Fe       0.00000000       0.00000000       0.00000000       0.00000000       0.00000000    -111.68582916
Fe       0.00000000       0.00000000       1.12060606       0.00000000       0.00000000     111.68582916
2
Properties=species:S:1:pos:R:3:forces:R:3 energy=9.466028128293802 pbc="F F F"
Fe       0.00000000       0.00000000       0.00000000       0.00000000       0.00000000     -89.73092651
Fe       0.00000000       0.00000000       1.17939394       0.00000000       0.00000000      89.73092651
2
Properties=species:S:1:pos:R:3:forces:R:3 energy=4.798444945997937 pbc="F F F"
Fe       0.00000000       0.00000000       0.00000000       0.00000000       0.00000000     -69.06895447
Fe       0.00000000       0.00000000       1.23818182       0.00000000       0.00000000      69.06895447
2
Properties=species:S:1:pos:R:3:forces:R:3 energy=1.3110141750996624 pbc="F F F"
Fe       0.00000000       0.00000000       0.00000000       0.00000000       0.00000000     -50.17664719
Fe       0.00000000       0.00000000       1.29696970       0.00000000       0.00000000      50.17664719
2
Properties=species:S:1:pos:R:3:forces:R:3 energy=-1.1997610033428234 pbc="F F F"
Fe       0.00000000       0.00000000       0.00000000       0.00000000       0.00000000     -36.18602753
Fe       0.00000000       0.00000000       1.35575758       0.00000000       0.00000000      36.18602753
2
Properties=species:S:1:pos:R:3:forces:R:3 energy=-3.044926846714607 pbc="F F F"
Fe       0.00000000       0.00000000       0.00000000       0.00000000       0.00000000     -27.29018211
Fe       0.00000000       0.00000000       1.41454545       0.00000000       0.00000000      27.29018211
2
Properties=species:S:1:pos:R:3:forces:R:3 energy=-4.469231566421823 pbc="F F F"
Fe       0.00000000       0.00000000       0.00000000       0.00000000       0.00000000     -21.52762413
Fe       0.00000000       0.00000000       1.47333333       0.00000000       0.00000000      21.52762413
2
Properties=species:S:1:pos:R:3:forces:R:3 energy=-5.6079353729675745 pbc="F F F"
Fe       0.00000000       0.00000000       0.00000000       0.00000000       0.00000000     -17.42218590
Fe       0.00000000       0.00000000       1.53212121       0.00000000       0.00000000      17.42218590
2
Properties=species:S:1:pos:R:3:forces:R:3 energy=-6.537100586846814 pbc="F F F"
Fe       0.00000000       0.00000000       0.00000000       0.00000000       0.00000000     -14.30989647
Fe       0.00000000       0.00000000       1.59090909       0.00000000       0.00000000      14.30989647
2
Properties=species:S:1:pos:R:3:forces:R:3 energy=-7.300150765673803 pbc="F F F"
Fe       0.00000000       0.00000000       0.00000000       0.00000000       0.00000000     -11.70192337
Fe       0.00000000       0.00000000       1.64969697       0.00000000       0.00000000      11.70192337
2
Properties=species:S:1:pos:R:3:forces:R:3 energy=-7.9172418763144075 pbc="F F F"
Fe       0.00000000       0.00000000       0.00000000       0.00000000       0.00000000      -9.31965351
Fe       0.00000000       0.00000000       1.70848485       0.00000000       0.00000000       9.31965351
2
Properties=species:S:1:pos:R:3:forces:R:3 energy=-8.398840830180335 pbc="F F F"
Fe       0.00000000       0.00000000       0.00000000       0.00000000       0.00000000      -7.08742285
Fe       0.00000000       0.00000000       1.76727273       0.00000000       0.00000000       7.08742285
2
Properties=species:S:1:pos:R:3:forces:R:3 energy=-8.752883056063885 pbc="F F F"
Fe       0.00000000       0.00000000       0.00000000       0.00000000       0.00000000      -4.97437143
Fe       0.00000000       0.00000000       1.82606061       0.00000000       0.00000000       4.97437143
2
Properties=species:S:1:pos:R:3:forces:R:3 energy=-8.985765737603371 pbc="F F F"
Fe       0.00000000       0.00000000       0.00000000       0.00000000       0.00000000      -2.97042322
Fe       0.00000000       0.00000000       1.88484848       0.00000000       0.00000000       2.97042322
2
Properties=species:S:1:pos:R:3:forces:R:3 energy=-9.106037338298952 pbc="F F F"
Fe       0.00000000       0.00000000       0.00000000       0.00000000       0.00000000      -1.16904807
Fe       0.00000000       0.00000000       1.94363636       0.00000000       0.00000000       1.16904807
2
Properties=species:S:1:pos:R:3:forces:R:3 energy=-9.130753048556254 pbc="F F F"
Fe       0.00000000       0.00000000       0.00000000       0.00000000       0.00000000       0.24919848
Fe       0.00000000       0.00000000       2.00242424       0.00000000       0.00000000      -0.24919848
2
Properties=species:S:1:pos:R:3:forces:R:3 energy=-9.087088414981308 pbc="F F F"
Fe       0.00000000       0.00000000       0.00000000       0.00000000       0.00000000       1.14494526
Fe       0.00000000       0.00000000       2.06121212       0.00000000       0.00000000      -1.14494526
2
Properties=species:S:1:pos:R:3:forces:R:3 energy=-9.00617032169128 pbc="F F F"
Fe       0.00000000       0.00000000       0.00000000       0.00000000       0.00000000       1.53418565
Fe       0.00000000       0.00000000       2.12000000       0.00000000       0.00000000      -1.53418565
2
Properties=species:S:1:pos:R:3:forces:R:3 energy=-8.91338405267968 pbc="F F F"
Fe       0.00000000       0.00000000       0.00000000       0.00000000       0.00000000       1.58371115
Fe       0.00000000       0.00000000       2.17878788       0.00000000       0.00000000      -1.58371115
2
Properties=species:S:1:pos:R:3:forces:R:3 energy=-8.822643823681451 pbc="F F F"
Fe       0.00000000       0.00000000       0.00000000       0.00000000       0.00000000       1.49352276
Fe       0.00000000       0.00000000       2.23757576       0.00000000       0.00000000      -1.49352276
2
Properties=species:S:1:pos:R:3:forces:R:3 energy=-8.737995537075387 pbc="F F F"
Fe       0.00000000       0.00000000       0.00000000       0.00000000       0.00000000       1.38940561
Fe       0.00000000       0.00000000       2.29636364       0.00000000       0.00000000      -1.38940561
2
Properties=species:S:1:pos:R:3:forces:R:3 energy=-8.658712166265927 pbc="F F F"
Fe       0.00000000       0.00000000       0.00000000       0.00000000       0.00000000       1.31315923
Fe       0.00000000       0.00000000       2.35515152       0.00000000       0.00000000      -1.31315923
2
Properties=species:S:1:pos:R:3:forces:R:3 energy=-8.583063371917941 pbc="F F F"
Fe       0.00000000       0.00000000       0.00000000       0.00000000       0.00000000       1.26377738
Fe       0.00000000       0.00000000       2.41393939       0.00000000       0.00000000      -1.26377738
2
Properties=species:S:1:pos:R:3:forces:R:3 energy=-8.509933211202373 pbc="F F F"
Fe       0.00000000       0.00000000       0.00000000       0.00000000       0.00000000       1.22396588
Fe       0.00000000       0.00000000       2.47272727       0.00000000       0.00000000      -1.22396588
2
Properties=species:S:1:pos:R:3:forces:R:3 energy=-8.43927994580441 pbc="F F F"
Fe       0.00000000       0.00000000       0.00000000       0.00000000       0.00000000       1.17928994
Fe       0.00000000       0.00000000       2.53151515       0.00000000       0.00000000      -1.17928994
2
Properties=species:S:1:pos:R:3:forces:R:3 energy=-8.370936461860364 pbc="F F F"
Fe       0.00000000       0.00000000       0.00000000       0.00000000       0.00000000       1.15243006
Fe       0.00000000       0.00000000       2.59030303       0.00000000       0.00000000      -1.15243006
2
Properties=species:S:1:pos:R:3:forces:R:3 energy=-8.302998528939467 pbc="F F F"
Fe       0.00000000       0.00000000       0.00000000       0.00000000       0.00000000       1.16190648
Fe       0.00000000       0.00000000       2.64909091       0.00000000       0.00000000      -1.16190648
2
Properties=species:S:1:pos:R:3:forces:R:3 energy=-8.234560530620513 pbc="F F F"
Fe       0.00000000       0.00000000       0.00000000       0.00000000       0.00000000       1.16139054
Fe       0.00000000       0.00000000       2.70787879       0.00000000       0.00000000      -1.16139054
2
Properties=species:S:1:pos:R:3:forces:R:3 energy=-8.166944962190568 pbc="F F F"
Fe       0.00000000       0.00000000       0.00000000       0.00000000       0.00000000       1.13694394
Fe       0.00000000       0.00000000       2.76666667       0.00000000       0.00000000      -1.13694394
2
Properties=species:S:1:pos:R:3:forces:R:3 energy=-8.100814526516873 pbc="F F F"
Fe       0.00000000       0.00000000       0.00000000       0.00000000       0.00000000       1.11545670
Fe       0.00000000       0.00000000       2.82545455       0.00000000       0.00000000      -1.11545670
2
Properties=species:S:1:pos:R:3:forces:R:3 energy=-8.035372360203574 pbc="F F F"
Fe       0.00000000       0.00000000       0.00000000       0.00000000       0.00000000       1.11484635
Fe       0.00000000       0.00000000       2.88424242       0.00000000       0.00000000      -1.11484635
2
Properties=species:S:1:pos:R:3:forces:R:3 energy=-7.9693407320741825 pbc="F F F"
Fe       0.00000000       0.00000000       0.00000000       0.00000000       0.00000000       1.13405550
Fe       0.00000000       0.00000000       2.94303030       0.00000000       0.00000000      -1.13405550
2
Properties=species:S:1:pos:R:3:forces:R:3 energy=-7.901879120109195 pbc="F F F"
Fe       0.00000000       0.00000000       0.00000000       0.00000000       0.00000000       1.16118336
Fe       0.00000000       0.00000000       3.00181818       0.00000000       0.00000000      -1.16118336
2
Properties=species:S:1:pos:R:3:forces:R:3 energy=-7.832902469707387 pbc="F F F"
Fe       0.00000000       0.00000000       0.00000000       0.00000000       0.00000000       1.18404007
Fe       0.00000000       0.00000000       3.06060606       0.00000000       0.00000000      -1.18404007
2
Properties=species:S:1:pos:R:3:forces:R:3 energy=-7.76285938563289 pbc="F F F"
Fe       0.00000000       0.00000000       0.00000000       0.00000000       0.00000000       1.19724333
Fe       0.00000000       0.00000000       3.11939394       0.00000000       0.00000000      -1.19724333
2
Properties=species:S:1:pos:R:3:forces:R:3 energy=-7.692287149321404 pbc="F F F"
Fe       0.00000000       0.00000000       0.00000000       0.00000000       0.00000000       1.20279992
Fe       0.00000000       0.00000000       3.17818182       0.00000000       0.00000000      -1.20279992
2
Properties=species:S:1:pos:R:3:forces:R:3 energy=-7.621487909460339 pbc="F F F"
Fe       0.00000000       0.00000000       0.00000000       0.00000000       0.00000000       1.20580232
Fe       0.00000000       0.00000000       3.23696970       0.00000000       0.00000000      -1.20580232
2
Properties=species:S:1:pos:R:3:forces:R:3 energy=-7.550492565750015 pbc="F F F"
Fe       0.00000000       0.00000000       0.00000000       0.00000000       0.00000000       1.20982254
Fe       0.00000000       0.00000000       3.29575758       0.00000000       0.00000000      -1.20982254
2
Properties=species:S:1:pos:R:3:forces:R:3 energy=-7.47921851797581 pbc="F F F"
Fe       0.00000000       0.00000000       0.00000000       0.00000000       0.00000000       1.21496856
Fe       0.00000000       0.00000000       3.35454545       0.00000000       0.00000000      -1.21496856
2
Properties=species:S:1:pos:R:3:forces:R:3 energy=-7.407673503557908 pbc="F F F"
Fe       0.00000000       0.00000000       0.00000000       0.00000000       0.00000000       1.21843529
Fe       0.00000000       0.00000000       3.41333333       0.00000000       0.00000000      -1.21843529
2
Properties=species:S:1:pos:R:3:forces:R:3 energy=-7.336075385048316 pbc="F F F"
Fe       0.00000000       0.00000000       0.00000000       0.00000000       0.00000000       1.21598876
Fe       0.00000000       0.00000000       3.47212121       0.00000000       0.00000000      -1.21598876
2
Properties=species:S:1:pos:R:3:forces:R:3 energy=-7.264904747938089 pbc="F F F"
Fe       0.00000000       0.00000000       0.00000000       0.00000000       0.00000000       1.20329273
Fe       0.00000000       0.00000000       3.53090909       0.00000000       0.00000000      -1.20329273
2
Properties=species:S:1:pos:R:3:forces:R:3 energy=-7.194869131534815 pbc="F F F"
Fe       0.00000000       0.00000000       0.00000000       0.00000000       0.00000000       1.17676961
Fe       0.00000000       0.00000000       3.58969697       0.00000000       0.00000000      -1.17676961
2
Properties=species:S:1:pos:R:3:forces:R:3 energy=-7.1268608058674445 pbc="F F F"
Fe       0.00000000       0.00000000       0.00000000       0.00000000       0.00000000       1.13410628
Fe       0.00000000       0.00000000       3.64848485       0.00000000       0.00000000      -1.13410628
2
Properties=species:S:1:pos:R:3:forces:R:3 energy=-7.061858893355976 pbc="F F F"
Fe       0.00000000       0.00000000       0.00000000       0.00000000       0.00000000       1.07451034
Fe       0.00000000       0.00000000       3.70727273       0.00000000       0.00000000      -1.07451034
2
Properties=species:S:1:pos:R:3:forces:R:3 energy=-7.00084140736295 pbc="F F F"
Fe       0.00000000       0.00000000       0.00000000       0.00000000       0.00000000       0.99880570
Fe       0.00000000       0.00000000       3.76606061       0.00000000       0.00000000      -0.99880570
2
Properties=species:S:1:pos:R:3:forces:R:3 energy=-6.944694062254645 pbc="F F F"
Fe       0.00000000       0.00000000       0.00000000       0.00000000       0.00000000       0.90935868
Fe       0.00000000       0.00000000       3.82484848       0.00000000       0.00000000      -0.90935868
2
Properties=species:S:1:pos:R:3:forces:R:3 energy=-6.894122125051073 pbc="F F F"
Fe       0.00000000       0.00000000       0.00000000       0.00000000       0.00000000       0.80976343
Fe       0.00000000       0.00000000       3.88363636       0.00000000       0.00000000      -0.80976343
2
Properties=species:S:1:pos:R:3:forces:R:3 energy=-6.849598010855904 pbc="F F F"
Fe       0.00000000       0.00000000       0.00000000       0.00000000       0.00000000       0.70441711
Fe       0.00000000       0.00000000       3.94242424       0.00000000       0.00000000      -0.70441711
2
Properties=species:S:1:pos:R:3:forces:R:3 energy=-6.8113220903426575 pbc="F F F"
Fe       0.00000000       0.00000000       0.00000000       0.00000000       0.00000000       0.59796643
Fe       0.00000000       0.00000000       4.00121212       0.00000000       0.00000000      -0.59796643
2
Properties=species:S:1:pos:R:3:forces:R:3 energy=-6.779226971785655 pbc="F F F"
Fe       0.00000000       0.00000000       0.00000000       0.00000000       0.00000000       0.49481073
Fe       0.00000000       0.00000000       4.06000000       0.00000000       0.00000000      -0.49481073
2
Properties=species:S:1:pos:R:3:forces:R:3 energy=-6.753005536249872 pbc="F F F"
Fe       0.00000000       0.00000000       0.00000000       0.00000000       0.00000000       0.39869696
Fe       0.00000000       0.00000000       4.11878788       0.00000000       0.00000000      -0.39869696
2
Properties=species:S:1:pos:R:3:forces:R:3 energy=-6.732154781266912 pbc="F F F"
Fe       0.00000000       0.00000000       0.00000000       0.00000000       0.00000000       0.31249669
Fe       0.00000000       0.00000000       4.17757576       0.00000000       0.00000000      -0.31249669
2
Properties=species:S:1:pos:R:3:forces:R:3 energy=-6.716029980698246 pbc="F F F"
Fe       0.00000000       0.00000000       0.00000000       0.00000000       0.00000000       0.23816630
Fe       0.00000000       0.00000000       4.23636364       0.00000000       0.00000000      -0.23816630
2
Properties=species:S:1:pos:R:3:forces:R:3 energy=-6.703896564950797 pbc="F F F"
Fe       0.00000000       0.00000000       0.00000000       0.00000000       0.00000000       0.17683397
Fe       0.00000000       0.00000000       4.29515152       0.00000000       0.00000000      -0.17683397
2
Properties=species:S:1:pos:R:3:forces:R:3 energy=-6.694975376157451 pbc="F F F"
Fe       0.00000000       0.00000000       0.00000000       0.00000000       0.00000000       0.12892155
Fe       0.00000000       0.00000000       4.35393939       0.00000000       0.00000000      -0.12892155
2
Properties=species:S:1:pos:R:3:forces:R:3 energy=-6.6884800373694615 pbc="F F F"
Fe       0.00000000       0.00000000       0.00000000       0.00000000       0.00000000       0.09419294
Fe       0.00000000       0.00000000       4.41272727       0.00000000       0.00000000      -0.09419294
2
Properties=species:S:1:pos:R:3:forces:R:3 energy=-6.683658876212496 pbc="F F F"
Fe       0.00000000       0.00000000       0.00000000       0.00000000       0.00000000       0.07176357
Fe       0.00000000       0.00000000       4.47151515       0.00000000       0.00000000      -0.07176357
2
Properties=species:S:1:pos:R:3:forces:R:3 energy=-6.679831536809691 pbc="F F F"
Fe       0.00000000       0.00000000       0.00000000       0.00000000       0.00000000       0.06006725
Fe       0.00000000       0.00000000       4.53030303       0.00000000       0.00000000      -0.06006725
2
Properties=species:S:1:pos:R:3:forces:R:3 energy=-6.676429330374239 pbc="F F F"
Fe       0.00000000       0.00000000       0.00000000       0.00000000       0.00000000       0.05690204
Fe       0.00000000       0.00000000       4.58909091       0.00000000       0.00000000      -0.05690204
2
Properties=species:S:1:pos:R:3:forces:R:3 energy=-6.673026601923694 pbc="F F F"
Fe       0.00000000       0.00000000       0.00000000       0.00000000       0.00000000       0.05959123
Fe       0.00000000       0.00000000       4.64787879       0.00000000       0.00000000      -0.05959123
2
Properties=species:S:1:pos:R:3:forces:R:3 energy=-6.669364111139837 pbc="F F F"
Fe       0.00000000       0.00000000       0.00000000       0.00000000       0.00000000       0.06525795
Fe       0.00000000       0.00000000       4.70666667       0.00000000       0.00000000      -0.06525795
2
Properties=species:S:1:pos:R:3:forces:R:3 energy=-6.665349328639974 pbc="F F F"
Fe       0.00000000       0.00000000       0.00000000       0.00000000       0.00000000       0.07116301
Fe       0.00000000       0.00000000       4.76545455       0.00000000       0.00000000      -0.07116301
2
Properties=species:S:1:pos:R:3:forces:R:3 energy=-6.6610374195114 pbc="F F F"
Fe       0.00000000       0.00000000       0.00000000       0.00000000       0.00000000       0.07503981
Fe       0.00000000       0.00000000       4.82424242       0.00000000       0.00000000      -0.07503981
2
Properties=species:S:1:pos:R:3:forces:R:3 energy=-6.656597343523664 pbc="F F F"
Fe       0.00000000       0.00000000       0.00000000       0.00000000       0.00000000       0.07534504
Fe       0.00000000       0.00000000       4.88303030       0.00000000       0.00000000      -0.07534504
2
Properties=species:S:1:pos:R:3:forces:R:3 energy=-6.65226221654678 pbc="F F F"
Fe       0.00000000       0.00000000       0.00000000       0.00000000       0.00000000       0.07141121
Fe       0.00000000       0.00000000       4.94181818       0.00000000       0.00000000      -0.07141121
2
Properties=species:S:1:pos:R:3:forces:R:3 energy=-6.6482793186773455 pbc="F F F"
Fe       0.00000000       0.00000000       0.00000000       0.00000000       0.00000000       0.06349893
Fe       0.00000000       0.00000000       5.00060606       0.00000000       0.00000000      -0.06349893
2
Properties=species:S:1:pos:R:3:forces:R:3 energy=-6.6448519771260415 pbc="F F F"
Fe       0.00000000       0.00000000       0.00000000       0.00000000       0.00000000       0.05277266
Fe       0.00000000       0.00000000       5.05939394       0.00000000       0.00000000      -0.05277266
2
Properties=species:S:1:pos:R:3:forces:R:3 energy=-6.642091361315146 pbc="F F F"
Fe       0.00000000       0.00000000       0.00000000       0.00000000       0.00000000       0.04120378
Fe       0.00000000       0.00000000       5.11818182       0.00000000       0.00000000      -0.04120378
2
Properties=species:S:1:pos:R:3:forces:R:3 energy=-6.639975113671275 pbc="F F F"
Fe       0.00000000       0.00000000       0.00000000       0.00000000       0.00000000       0.03130115
Fe       0.00000000       0.00000000       5.17696970       0.00000000       0.00000000      -0.03130115
2
Properties=species:S:1:pos:R:3:forces:R:3 energy=-6.638331157752847 pbc="F F F"
Fe       0.00000000       0.00000000       0.00000000       0.00000000       0.00000000       0.02543661
Fe       0.00000000       0.00000000       5.23575758       0.00000000       0.00000000      -0.02543661
2
Properties=species:S:1:pos:R:3:forces:R:3 energy=-6.636885467497108 pbc="F F F"
Fe       0.00000000       0.00000000       0.00000000       0.00000000       0.00000000       0.02450620
Fe       0.00000000       0.00000000       5.29454545       0.00000000       0.00000000      -0.02450620
2
Properties=species:S:1:pos:R:3:forces:R:3 energy=-6.63539562439002 pbc="F F F"
Fe       0.00000000       0.00000000       0.00000000       0.00000000       0.00000000       0.02622368
Fe       0.00000000       0.00000000       5.35333333       0.00000000       0.00000000      -0.02622368
2
Properties=species:S:1:pos:R:3:forces:R:3 energy=-6.633854461778857 pbc="F F F"
Fe       0.00000000       0.00000000       0.00000000       0.00000000       0.00000000       0.02535565
Fe       0.00000000       0.00000000       5.41212121       0.00000000       0.00000000      -0.02535565
2
Properties=species:S:1:pos:R:3:forces:R:3 energy=-6.632503021838862 pbc="F F F"
Fe       0.00000000       0.00000000       0.00000000       0.00000000       0.00000000       0.02039442
Fe       0.00000000       0.00000000       5.47090909       0.00000000       0.00000000      -0.02039442
2
Properties=species:S:1:pos:R:3:forces:R:3 energy=-6.631388548118425 pbc="F F F"
Fe       0.00000000       0.00000000       0.00000000       0.00000000       0.00000000       0.01861749
Fe       0.00000000       0.00000000       5.52969697       0.00000000       0.00000000      -0.01861749
2
Properties=species:S:1:pos:R:3:forces:R:3 energy=-6.630214807772657 pbc="F F F"
Fe       0.00000000       0.00000000       0.00000000       0.00000000       0.00000000       0.02160736
Fe       0.00000000       0.00000000       5.58848485       0.00000000       0.00000000      -0.02160736
2
Properties=species:S:1:pos:R:3:forces:R:3 energy=-6.628868594229868 pbc="F F F"
Fe       0.00000000       0.00000000       0.00000000       0.00000000       0.00000000       0.02378960
Fe       0.00000000       0.00000000       5.64727273       0.00000000       0.00000000      -0.02378960
2
Properties=species:S:1:pos:R:3:forces:R:3 energy=-6.627447358404156 pbc="F F F"
Fe       0.00000000       0.00000000       0.00000000       0.00000000       0.00000000       0.02469064
Fe       0.00000000       0.00000000       5.70606061       0.00000000       0.00000000      -0.02469064
2
Properties=species:S:1:pos:R:3:forces:R:3 energy=-6.625890191379905 pbc="F F F"
Fe       0.00000000       0.00000000       0.00000000       0.00000000       0.00000000       0.02910981
Fe       0.00000000       0.00000000       5.76484848       0.00000000       0.00000000      -0.02910981
2
Properties=species:S:1:pos:R:3:forces:R:3 energy=-6.62399982782118 pbc="F F F"
Fe       0.00000000       0.00000000       0.00000000       0.00000000       0.00000000       0.03428855
Fe       0.00000000       0.00000000       5.82363636       0.00000000       0.00000000      -0.03428855
2
Properties=species:S:1:pos:R:3:forces:R:3 energy=-6.622102049988999 pbc="F F F"
Fe       0.00000000       0.00000000       0.00000000       0.00000000       0.00000000       0.02812886
Fe       0.00000000       0.00000000       5.88242424       0.00000000       0.00000000      -0.02812886
2
Properties=species:S:1:pos:R:3:forces:R:3 energy=-6.620837389098745 pbc="F F F"
Fe       0.00000000       0.00000000       0.00000000       0.00000000       0.00000000       0.01483314
Fe       0.00000000       0.00000000       5.94121212       0.00000000       0.00000000      -0.01483314
2
Properties=species:S:1:pos:R:3:forces:R:3 energy=-6.620212692252732 pbc="F F F"
Fe       0.00000000       0.00000000       0.00000000       0.00000000       0.00000000       0.00836448
Fe       0.00000000       0.00000000       6.00000000       0.00000000       0.00000000      -0.00836448
