2
Properties=species:S:1:pos:R:3:forces:R:3 energy=12128.525572171342 pbc="F F F"
Gd       0.00000000       0.00000000       0.00000000       0.00000000       0.00000000 -209262.57812500
Gd       0.00000000       0.00000000       0.18000000       0.00000000       0.00000000  209262.57812500
2
Properties=species:S:1:pos:R:3:forces:R:3 energy=4772.668150296343 pbc="F F F"
Gd       0.00000000       0.00000000       0.00000000       0.00000000       0.00000000  -70195.28906250
Gd       0.00000000       0.00000000       0.23878788       0.00000000       0.00000000   70195.28906250
2
Properties=species:S:1:pos:R:3:forces:R:3 energy=2112.4906600619674 pbc="F F F"
Gd       0.00000000       0.00000000       0.00000000       0.00000000       0.00000000  -27722.72656250
Gd       0.00000000       0.00000000       0.29757576       0.00000000       0.00000000   27722.72656250
2
Properties=species:S:1:pos:R:3:forces:R:3 energy=1011.6238998080614 pbc="F F F"
Gd       0.00000000       0.00000000       0.00000000       0.00000000       0.00000000  -12114.90136719
Gd       0.00000000       0.00000000       0.35636364       0.00000000       0.00000000   12114.90136719
2
Properties=species:S:1:pos:R:3:forces:R:3 energy=514.5242294042407 pbc="F F F"
Gd       0.00000000       0.00000000       0.00000000       0.00000000       0.00000000   -5687.15576172
Gd       0.00000000       0.00000000       0.41515152       0.00000000       0.00000000    5687.15576172
2
Properties=species:S:1:pos:R:3:forces:R:3 energy=275.0184921058889 pbc="F F F"
Gd       0.00000000       0.00000000       0.00000000       0.00000000       0.00000000   -2827.04174805
Gd       0.00000000       0.00000000       0.47393939       0.00000000       0.00000000    2827.04174805
2
Properties=species:S:1:pos:R:3:forces:R:3 energy=153.26234283290367 pbc="F F F"
Gd       0.00000000       0.00000000       0.00000000       0.00000000       0.00000000   -1476.30322266
Gd       0.00000000       0.00000000       0.53272727       0.00000000       0.00000000    1476.30322266
2
Properties=species:S:1:pos:R:3:forces:R:3 energy=88.40121311017533 pbc="F F F"
Gd       0.00000000       0.00000000       0.00000000       0.00000000       0.00000000    -805.17333984
Gd       0.00000000       0.00000000       0.59151515       0.00000000       0.00000000     805.17333984
2
Properties=species:S:1:pos:R:3:forces:R:3 energy=52.3992257035851 pbc="F F F"
Gd       0.00000000       0.00000000       0.00000000       0.00000000       0.00000000    -456.09036255
Gd       0.00000000       0.00000000       0.65030303       0.00000000       0.00000000     456.09036255
2
Properties=species:S:1:pos:R:3:forces:R:3 energy=31.696898057676993 pbc="F F F"
Gd       0.00000000       0.00000000       0.00000000       0.00000000       0.00000000    -266.76132202
Gd       0.00000000       0.00000000       0.70909091       0.00000000       0.00000000     266.76132202
2
Properties=species:S:1:pos:R:3:forces:R:3 energy=19.436880802041635 pbc="F F F"
Gd       0.00000000       0.00000000       0.00000000       0.00000000       0.00000000    -160.17237854
Gd       0.00000000       0.00000000       0.76787879       0.00000000       0.00000000     160.17237854
2
Properties=species:S:1:pos:R:3:forces:R:3 energy=12.000248835738894 pbc="F F F"
Gd       0.00000000       0.00000000       0.00000000       0.00000000       0.00000000     -98.26641846
Gd       0.00000000       0.00000000       0.82666667       0.00000000       0.00000000      98.26641846
2
Properties=species:S:1:pos:R:3:forces:R:3 energy=7.395709243291422 pbc="F F F"
Gd       0.00000000       0.00000000       0.00000000       0.00000000       0.00000000     -61.52346039
Gd       0.00000000       0.00000000       0.88545455       0.00000000       0.00000000      61.52346039
2
Properties=species:S:1:pos:R:3:forces:R:3 energy=4.47816811952383 pbc="F F F"
Gd       0.00000000       0.00000000       0.00000000       0.00000000       0.00000000     -39.65206146
Gd       0.00000000       0.00000000       0.94424242       0.00000000       0.00000000      39.65206146
2
Properties=species:S:1:pos:R:3:forces:R:3 energy=2.5500699794647277 pbc="F F F"
Gd       0.00000000       0.00000000       0.00000000       0.00000000       0.00000000     -27.23086166
Gd       0.00000000       0.00000000       1.00303030       0.00000000       0.00000000      27.23086166
2
Properties=species:S:1:pos:R:3:forces:R:3 energy=1.145899705402299 pbc="F F F"
Gd       0.00000000       0.00000000       0.00000000       0.00000000       0.00000000     -21.52050209
Gd       0.00000000       0.00000000       1.06181818       0.00000000       0.00000000      21.52050209
2
Properties=species:S:1:pos:R:3:forces:R:3 energy=-0.08611875601824466 pbc="F F F"
Gd       0.00000000       0.00000000       0.00000000       0.00000000       0.00000000     -21.23314285
Gd       0.00000000       0.00000000       1.12060606       0.00000000       0.00000000      21.23314285
2
Properties=species:S:1:pos:R:3:forces:R:3 energy=-1.4387986678694629 pbc="F F F"
Gd       0.00000000       0.00000000       0.00000000       0.00000000       0.00000000     -25.36695862
Gd       0.00000000       0.00000000       1.17939394       0.00000000       0.00000000      25.36695862
2
Properties=species:S:1:pos:R:3:forces:R:3 energy=-3.095823343173722 pbc="F F F"
Gd       0.00000000       0.00000000       0.00000000       0.00000000       0.00000000     -30.82479858
Gd       0.00000000       0.00000000       1.23818182       0.00000000       0.00000000      30.82479858
2
Properties=species:S:1:pos:R:3:forces:R:3 energy=-5.0101870398506545 pbc="F F F"
Gd       0.00000000       0.00000000       0.00000000       0.00000000       0.00000000     -33.75871277
Gd       0.00000000       0.00000000       1.29696970       0.00000000       0.00000000      33.75871277
2
Properties=species:S:1:pos:R:3:forces:R:3 energy=-7.0049306377561225 pbc="F F F"
Gd       0.00000000       0.00000000       0.00000000       0.00000000       0.00000000     -33.61491776
Gd       0.00000000       0.00000000       1.35575758       0.00000000       0.00000000      33.61491776
2
Properties=species:S:1:pos:R:3:forces:R:3 energy=-8.904523563851166 pbc="F F F"
Gd       0.00000000       0.00000000       0.00000000       0.00000000       0.00000000     -30.53434563
Gd       0.00000000       0.00000000       1.41454545       0.00000000       0.00000000      30.53434563
2
Properties=species:S:1:pos:R:3:forces:R:3 energy=-10.550230447832568 pbc="F F F"
Gd       0.00000000       0.00000000       0.00000000       0.00000000       0.00000000     -25.21508789
Gd       0.00000000       0.00000000       1.47333333       0.00000000       0.00000000      25.21508789
2
Properties=species:S:1:pos:R:3:forces:R:3 energy=-11.859339879843398 pbc="F F F"
Gd       0.00000000       0.00000000       0.00000000       0.00000000       0.00000000     -19.35585022
Gd       0.00000000       0.00000000       1.53212121       0.00000000       0.00000000      19.35585022
2
Properties=species:S:1:pos:R:3:forces:R:3 energy=-12.83411573699099 pbc="F F F"
Gd       0.00000000       0.00000000       0.00000000       0.00000000       0.00000000     -13.86336040
Gd       0.00000000       0.00000000       1.59090909       0.00000000       0.00000000      13.86336040
2
Properties=species:S:1:pos:R:3:forces:R:3 energy=-13.49342530287486 pbc="F F F"
Gd       0.00000000       0.00000000       0.00000000       0.00000000       0.00000000      -8.62093735
Gd       0.00000000       0.00000000       1.64969697       0.00000000       0.00000000       8.62093735
2
Properties=species:S:1:pos:R:3:forces:R:3 energy=-13.864821907761424 pbc="F F F"
Gd       0.00000000       0.00000000       0.00000000       0.00000000       0.00000000      -4.25650454
Gd       0.00000000       0.00000000       1.70848485       0.00000000       0.00000000       4.25650454
2
Properties=species:S:1:pos:R:3:forces:R:3 energy=-14.025972534553038 pbc="F F F"
Gd       0.00000000       0.00000000       0.00000000       0.00000000       0.00000000      -1.48020101
Gd       0.00000000       0.00000000       1.76727273       0.00000000       0.00000000       1.48020101
2
Properties=species:S:1:pos:R:3:forces:R:3 energy=-14.065018333155273 pbc="F F F"
Gd       0.00000000       0.00000000       0.00000000       0.00000000       0.00000000      -0.06357271
Gd       0.00000000       0.00000000       1.82606061       0.00000000       0.00000000       0.06357271
2
Properties=species:S:1:pos:R:3:forces:R:3 energy=-14.061959870501935 pbc="F F F"
Gd       0.00000000       0.00000000       0.00000000       0.00000000       0.00000000      -0.10437735
Gd       0.00000000       0.00000000       1.88484848       0.00000000       0.00000000       0.10437735
2
Properties=species:S:1:pos:R:3:forces:R:3 energy=-14.109138195824677 pbc="F F F"
Gd       0.00000000       0.00000000       0.00000000       0.00000000       0.00000000      -1.73710227
Gd       0.00000000       0.00000000       1.94363636       0.00000000       0.00000000       1.73710227
2
Properties=species:S:1:pos:R:3:forces:R:3 energy=-14.284869585844216 pbc="F F F"
Gd       0.00000000       0.00000000       0.00000000       0.00000000       0.00000000      -4.30677748
Gd       0.00000000       0.00000000       2.00242424       0.00000000       0.00000000       4.30677748
2
Properties=species:S:1:pos:R:3:forces:R:3 energy=-14.612286881294162 pbc="F F F"
Gd       0.00000000       0.00000000       0.00000000       0.00000000       0.00000000      -6.72505379
Gd       0.00000000       0.00000000       2.06121212       0.00000000       0.00000000       6.72505379
2
Properties=species:S:1:pos:R:3:forces:R:3 energy=-15.057047756853542 pbc="F F F"
Gd       0.00000000       0.00000000       0.00000000       0.00000000       0.00000000      -8.21911049
Gd       0.00000000       0.00000000       2.12000000       0.00000000       0.00000000       8.21911049
2
Properties=species:S:1:pos:R:3:forces:R:3 energy=-15.556501940789266 pbc="F F F"
Gd       0.00000000       0.00000000       0.00000000       0.00000000       0.00000000      -8.59688950
Gd       0.00000000       0.00000000       2.17878788       0.00000000       0.00000000       8.59688950
2
Properties=species:S:1:pos:R:3:forces:R:3 energy=-16.05028407633134 pbc="F F F"
Gd       0.00000000       0.00000000       0.00000000       0.00000000       0.00000000      -8.08356571
Gd       0.00000000       0.00000000       2.23757576       0.00000000       0.00000000       8.08356571
2
Properties=species:S:1:pos:R:3:forces:R:3 energy=-16.496831424189455 pbc="F F F"
Gd       0.00000000       0.00000000       0.00000000       0.00000000       0.00000000      -7.05291271
Gd       0.00000000       0.00000000       2.29636364       0.00000000       0.00000000       7.05291271
2
Properties=species:S:1:pos:R:3:forces:R:3 energy=-16.875996847816573 pbc="F F F"
Gd       0.00000000       0.00000000       0.00000000       0.00000000       0.00000000      -5.83747864
Gd       0.00000000       0.00000000       2.35515152       0.00000000       0.00000000       5.83747864
2
Properties=species:S:1:pos:R:3:forces:R:3 energy=-17.18384088666604 pbc="F F F"
Gd       0.00000000       0.00000000       0.00000000       0.00000000       0.00000000      -4.65191221
Gd       0.00000000       0.00000000       2.41393939       0.00000000       0.00000000       4.65191221
2
Properties=species:S:1:pos:R:3:forces:R:3 energy=-17.42555254937754 pbc="F F F"
Gd       0.00000000       0.00000000       0.00000000       0.00000000       0.00000000      -3.59679103
Gd       0.00000000       0.00000000       2.47272727       0.00000000       0.00000000       3.59679103
2
Properties=species:S:1:pos:R:3:forces:R:3 energy=-17.60983978877669 pbc="F F F"
Gd       0.00000000       0.00000000       0.00000000       0.00000000       0.00000000      -2.69903374
Gd       0.00000000       0.00000000       2.53151515       0.00000000       0.00000000       2.69903374
2
Properties=species:S:1:pos:R:3:forces:R:3 energy=-17.74587591274166 pbc="F F F"
Gd       0.00000000       0.00000000       0.00000000       0.00000000       0.00000000      -1.95327616
Gd       0.00000000       0.00000000       2.59030303       0.00000000       0.00000000       1.95327616
2
Properties=species:S:1:pos:R:3:forces:R:3 energy=-17.842206572066242 pbc="F F F"
Gd       0.00000000       0.00000000       0.00000000       0.00000000       0.00000000      -1.34567964
Gd       0.00000000       0.00000000       2.64909091       0.00000000       0.00000000       1.34567964
2
Properties=species:S:1:pos:R:3:forces:R:3 energy=-17.906500030837492 pbc="F F F"
Gd       0.00000000       0.00000000       0.00000000       0.00000000       0.00000000      -0.86062104
Gd       0.00000000       0.00000000       2.70787879       0.00000000       0.00000000       0.86062104
2
Properties=species:S:1:pos:R:3:forces:R:3 energy=-17.945443973204583 pbc="F F F"
Gd       0.00000000       0.00000000       0.00000000       0.00000000       0.00000000      -0.48018935
Gd       0.00000000       0.00000000       2.76666667       0.00000000       0.00000000       0.48018935
2
Properties=species:S:1:pos:R:3:forces:R:3 energy=-17.964612153701257 pbc="F F F"
Gd       0.00000000       0.00000000       0.00000000       0.00000000       0.00000000      -0.18422040
Gd       0.00000000       0.00000000       2.82545455       0.00000000       0.00000000       0.18422040
2
Properties=species:S:1:pos:R:3:forces:R:3 energy=-17.968347985622785 pbc="F F F"
Gd       0.00000000       0.00000000       0.00000000       0.00000000       0.00000000       0.04827390
Gd       0.00000000       0.00000000       2.88424242       0.00000000       0.00000000      -0.04827390
2
Properties=species:S:1:pos:R:3:forces:R:3 energy=-17.95978547751142 pbc="F F F"
Gd       0.00000000       0.00000000       0.00000000       0.00000000       0.00000000       0.23730259
Gd       0.00000000       0.00000000       2.94303030       0.00000000       0.00000000      -0.23730259
2
Properties=species:S:1:pos:R:3:forces:R:3 energy=-17.940967596477577 pbc="F F F"
Gd       0.00000000       0.00000000       0.00000000       0.00000000       0.00000000       0.39959034
Gd       0.00000000       0.00000000       3.00181818       0.00000000       0.00000000      -0.39959034
2
Properties=species:S:1:pos:R:3:forces:R:3 energy=-17.913114988945157 pbc="F F F"
Gd       0.00000000       0.00000000       0.00000000       0.00000000       0.00000000       0.54574132
Gd       0.00000000       0.00000000       3.06060606       0.00000000       0.00000000      -0.54574132
2
Properties=species:S:1:pos:R:3:forces:R:3 energy=-17.87705740890993 pbc="F F F"
Gd       0.00000000       0.00000000       0.00000000       0.00000000       0.00000000       0.67859596
Gd       0.00000000       0.00000000       3.11939394       0.00000000       0.00000000      -0.67859596
2
Properties=species:S:1:pos:R:3:forces:R:3 energy=-17.83365479849229 pbc="F F F"
Gd       0.00000000       0.00000000       0.00000000       0.00000000       0.00000000       0.79466742
Gd       0.00000000       0.00000000       3.17818182       0.00000000       0.00000000      -0.79466742
2
Properties=species:S:1:pos:R:3:forces:R:3 energy=-17.784064614521128 pbc="F F F"
Gd       0.00000000       0.00000000       0.00000000       0.00000000       0.00000000       0.88836277
Gd       0.00000000       0.00000000       3.23696970       0.00000000       0.00000000      -0.88836277
2
Properties=species:S:1:pos:R:3:forces:R:3 energy=-17.729713173954828 pbc="F F F"
Gd       0.00000000       0.00000000       0.00000000       0.00000000       0.00000000       0.95631051
Gd       0.00000000       0.00000000       3.29575758       0.00000000       0.00000000      -0.95631051
2
Properties=species:S:1:pos:R:3:forces:R:3 energy=-17.67211628708206 pbc="F F F"
Gd       0.00000000       0.00000000       0.00000000       0.00000000       0.00000000       0.99929589
Gd       0.00000000       0.00000000       3.35454545       0.00000000       0.00000000      -0.99929589
2
Properties=species:S:1:pos:R:3:forces:R:3 energy=-17.612631346549005 pbc="F F F"
Gd       0.00000000       0.00000000       0.00000000       0.00000000       0.00000000       1.02136981
Gd       0.00000000       0.00000000       3.41333333       0.00000000       0.00000000      -1.02136981
2
Properties=species:S:1:pos:R:3:forces:R:3 energy=-17.552339097086723 pbc="F F F"
Gd       0.00000000       0.00000000       0.00000000       0.00000000       0.00000000       1.02749717
Gd       0.00000000       0.00000000       3.47212121       0.00000000       0.00000000      -1.02749717
2
Properties=species:S:1:pos:R:3:forces:R:3 energy=-17.492060807984473 pbc="F F F"
Gd       0.00000000       0.00000000       0.00000000       0.00000000       0.00000000       1.02137077
Gd       0.00000000       0.00000000       3.53090909       0.00000000       0.00000000      -1.02137077
2
Properties=species:S:1:pos:R:3:forces:R:3 energy=-17.432463291306124 pbc="F F F"
Gd       0.00000000       0.00000000       0.00000000       0.00000000       0.00000000       1.00438070
Gd       0.00000000       0.00000000       3.58969697       0.00000000       0.00000000      -1.00438070
2
Properties=species:S:1:pos:R:3:forces:R:3 energy=-17.374192245232052 pbc="F F F"
Gd       0.00000000       0.00000000       0.00000000       0.00000000       0.00000000       0.97600144
Gd       0.00000000       0.00000000       3.64848485       0.00000000       0.00000000      -0.97600144
2
Properties=species:S:1:pos:R:3:forces:R:3 energy=-17.31795272383345 pbc="F F F"
Gd       0.00000000       0.00000000       0.00000000       0.00000000       0.00000000       0.93517309
Gd       0.00000000       0.00000000       3.70727273       0.00000000       0.00000000      -0.93517309
2
Properties=species:S:1:pos:R:3:forces:R:3 energy=-17.26448008334772 pbc="F F F"
Gd       0.00000000       0.00000000       0.00000000       0.00000000       0.00000000       0.88207805
Gd       0.00000000       0.00000000       3.76606061       0.00000000       0.00000000      -0.88207805
2
Properties=species:S:1:pos:R:3:forces:R:3 energy=-17.21442976143903 pbc="F F F"
Gd       0.00000000       0.00000000       0.00000000       0.00000000       0.00000000       0.81950521
Gd       0.00000000       0.00000000       3.82484848       0.00000000       0.00000000      -0.81950521
2
Properties=species:S:1:pos:R:3:forces:R:3 energy=-17.168203543745943 pbc="F F F"
Gd       0.00000000       0.00000000       0.00000000       0.00000000       0.00000000       0.75308543
Gd       0.00000000       0.00000000       3.88363636       0.00000000       0.00000000      -0.75308543
2
Properties=species:S:1:pos:R:3:forces:R:3 energy=-17.12581618886133 pbc="F F F"
Gd       0.00000000       0.00000000       0.00000000       0.00000000       0.00000000       0.69021332
Gd       0.00000000       0.00000000       3.94242424       0.00000000       0.00000000      -0.69021332
2
Properties=species:S:1:pos:R:3:forces:R:3 energy=-17.086841990892395 pbc="F F F"
Gd       0.00000000       0.00000000       0.00000000       0.00000000       0.00000000       0.63802212
Gd       0.00000000       0.00000000       4.00121212       0.00000000       0.00000000      -0.63802212
2
Properties=species:S:1:pos:R:3:forces:R:3 energy=-17.050493050446743 pbc="F F F"
Gd       0.00000000       0.00000000       0.00000000       0.00000000       0.00000000       0.60143590
Gd       0.00000000       0.00000000       4.06000000       0.00000000       0.00000000      -0.60143590
2
Properties=species:S:1:pos:R:3:forces:R:3 energy=-17.015787210011055 pbc="F F F"
Gd       0.00000000       0.00000000       0.00000000       0.00000000       0.00000000       0.58211172
Gd       0.00000000       0.00000000       4.11878788       0.00000000       0.00000000      -0.58211172
2
Properties=species:S:1:pos:R:3:forces:R:3 energy=-16.98174069616303 pbc="F F F"
Gd       0.00000000       0.00000000       0.00000000       0.00000000       0.00000000       0.57844067
Gd       0.00000000       0.00000000       4.17757576       0.00000000       0.00000000      -0.57844067
2
Properties=species:S:1:pos:R:3:forces:R:3 energy=-16.94754745469235 pbc="F F F"
Gd       0.00000000       0.00000000       0.00000000       0.00000000       0.00000000       0.58637303
Gd       0.00000000       0.00000000       4.23636364       0.00000000       0.00000000      -0.58637303
2
Properties=species:S:1:pos:R:3:forces:R:3 energy=-16.912674606731375 pbc="F F F"
Gd       0.00000000       0.00000000       0.00000000       0.00000000       0.00000000       0.60056913
Gd       0.00000000       0.00000000       4.29515152       0.00000000       0.00000000      -0.60056913
2
Properties=species:S:1:pos:R:3:forces:R:3 energy=-16.87691976424876 pbc="F F F"
Gd       0.00000000       0.00000000       0.00000000       0.00000000       0.00000000       0.61557704
Gd       0.00000000       0.00000000       4.35393939       0.00000000       0.00000000      -0.61557704
2
Properties=species:S:1:pos:R:3:forces:R:3 energy=-16.840374689055146 pbc="F F F"
Gd       0.00000000       0.00000000       0.00000000       0.00000000       0.00000000       0.62678027
Gd       0.00000000       0.00000000       4.41272727       0.00000000       0.00000000      -0.62678027
2
Properties=species:S:1:pos:R:3:forces:R:3 energy=-16.803362489682435 pbc="F F F"
Gd       0.00000000       0.00000000       0.00000000       0.00000000       0.00000000       0.63102221
Gd       0.00000000       0.00000000       4.47151515       0.00000000       0.00000000      -0.63102221
2
Properties=species:S:1:pos:R:3:forces:R:3 energy=-16.76634613834151 pbc="F F F"
Gd       0.00000000       0.00000000       0.00000000       0.00000000       0.00000000       0.62683511
Gd       0.00000000       0.00000000       4.53030303       0.00000000       0.00000000      -0.62683511
2
Properties=species:S:1:pos:R:3:forces:R:3 energy=-16.72982728641004 pbc="F F F"
Gd       0.00000000       0.00000000       0.00000000       0.00000000       0.00000000       0.61428201
Gd       0.00000000       0.00000000       4.58909091       0.00000000       0.00000000      -0.61428201
2
Properties=species:S:1:pos:R:3:forces:R:3 energy=-16.694264362482848 pbc="F F F"
Gd       0.00000000       0.00000000       0.00000000       0.00000000       0.00000000       0.59455609
Gd       0.00000000       0.00000000       4.64787879       0.00000000       0.00000000      -0.59455609
2
Properties=species:S:1:pos:R:3:forces:R:3 energy=-16.660026764326513 pbc="F F F"
Gd       0.00000000       0.00000000       0.00000000       0.00000000       0.00000000       0.56945121
Gd       0.00000000       0.00000000       4.70666667       0.00000000       0.00000000      -0.56945121
2
Properties=species:S:1:pos:R:3:forces:R:3 energy=-16.627377680070392 pbc="F F F"
Gd       0.00000000       0.00000000       0.00000000       0.00000000       0.00000000       0.54092753
Gd       0.00000000       0.00000000       4.76545455       0.00000000       0.00000000      -0.54092753
2
Properties=species:S:1:pos:R:3:forces:R:3 energy=-16.596456896726327 pbc="F F F"
Gd       0.00000000       0.00000000       0.00000000       0.00000000       0.00000000       0.51082653
Gd       0.00000000       0.00000000       4.82424242       0.00000000       0.00000000      -0.51082653
2
Properties=species:S:1:pos:R:3:forces:R:3 energy=-16.567315138799707 pbc="F F F"
Gd       0.00000000       0.00000000       0.00000000       0.00000000       0.00000000       0.48081875
Gd       0.00000000       0.00000000       4.88303030       0.00000000       0.00000000      -0.48081875
2
Properties=species:S:1:pos:R:3:forces:R:3 energy=-16.53989483641201 pbc="F F F"
Gd       0.00000000       0.00000000       0.00000000       0.00000000       0.00000000       0.45240986
Gd       0.00000000       0.00000000       4.94181818       0.00000000       0.00000000      -0.45240986
2
Properties=species:S:1:pos:R:3:forces:R:3 energy=-16.51406257557015 pbc="F F F"
Gd       0.00000000       0.00000000       0.00000000       0.00000000       0.00000000       0.42693970
Gd       0.00000000       0.00000000       5.00060606       0.00000000       0.00000000      -0.42693970
2
Properties=species:S:1:pos:R:3:forces:R:3 energy=-16.489618596895767 pbc="F F F"
Gd       0.00000000       0.00000000       0.00000000       0.00000000       0.00000000       0.40536326
Gd       0.00000000       0.00000000       5.05939394       0.00000000       0.00000000      -0.40536326
2
Properties=species:S:1:pos:R:3:forces:R:3 energy=-16.466319481068215 pbc="F F F"
Gd       0.00000000       0.00000000       0.00000000       0.00000000       0.00000000       0.38792467
Gd       0.00000000       0.00000000       5.11818182       0.00000000       0.00000000      -0.38792467
2
Properties=species:S:1:pos:R:3:forces:R:3 energy=-16.44394489969105 pbc="F F F"
Gd       0.00000000       0.00000000       0.00000000       0.00000000       0.00000000       0.37374038
Gd       0.00000000       0.00000000       5.17696970       0.00000000       0.00000000      -0.37374038
2
Properties=species:S:1:pos:R:3:forces:R:3 energy=-16.422362338432684 pbc="F F F"
Gd       0.00000000       0.00000000       0.00000000       0.00000000       0.00000000       0.36032727
Gd       0.00000000       0.00000000       5.23575758       0.00000000       0.00000000      -0.36032727
2
Properties=species:S:1:pos:R:3:forces:R:3 energy=-16.401645289285145 pbc="F F F"
Gd       0.00000000       0.00000000       0.00000000       0.00000000       0.00000000       0.34360743
Gd       0.00000000       0.00000000       5.29454545       0.00000000       0.00000000      -0.34360743
2
Properties=species:S:1:pos:R:3:forces:R:3 energy=-16.382101759423286 pbc="F F F"
Gd       0.00000000       0.00000000       0.00000000       0.00000000       0.00000000       0.31991732
Gd       0.00000000       0.00000000       5.35333333       0.00000000       0.00000000      -0.31991732
2
Properties=species:S:1:pos:R:3:forces:R:3 energy=-16.364155882541006 pbc="F F F"
Gd       0.00000000       0.00000000       0.00000000       0.00000000       0.00000000       0.28989983
Gd       0.00000000       0.00000000       5.41212121       0.00000000       0.00000000      -0.28989983
2
Properties=species:S:1:pos:R:3:forces:R:3 energy=-16.34801602118222 pbc="F F F"
Gd       0.00000000       0.00000000       0.00000000       0.00000000       0.00000000       0.25985247
Gd       0.00000000       0.00000000       5.47090909       0.00000000       0.00000000      -0.25985247
2
Properties=species:S:1:pos:R:3:forces:R:3 energy=-16.333514451253205 pbc="F F F"
Gd       0.00000000       0.00000000       0.00000000       0.00000000       0.00000000       0.23391290
Gd       0.00000000       0.00000000       5.52969697       0.00000000       0.00000000      -0.23391290
2
Properties=species:S:1:pos:R:3:forces:R:3 energy=-16.320538311939842 pbc="F F F"
Gd       0.00000000       0.00000000       0.00000000       0.00000000       0.00000000       0.20707773
Gd       0.00000000       0.00000000       5.58848485       0.00000000       0.00000000      -0.20707773
2
Properties=species:S:1:pos:R:3:forces:R:3 energy=-16.309165128830863 pbc="F F F"
Gd       0.00000000       0.00000000       0.00000000       0.00000000       0.00000000       0.18080838
Gd       0.00000000       0.00000000       5.64727273       0.00000000       0.00000000      -0.18080838
2
Properties=species:S:1:pos:R:3:forces:R:3 energy=-16.299044598541965 pbc="F F F"
Gd       0.00000000       0.00000000       0.00000000       0.00000000       0.00000000       0.16637622
Gd       0.00000000       0.00000000       5.70606061       0.00000000       0.00000000      -0.16637622
2
Properties=species:S:1:pos:R:3:forces:R:3 energy=-16.289288054361972 pbc="F F F"
Gd       0.00000000       0.00000000       0.00000000       0.00000000       0.00000000       0.16617808
Gd       0.00000000       0.00000000       5.76484848       0.00000000       0.00000000      -0.16617808
2
Properties=species:S:1:pos:R:3:forces:R:3 energy=-16.279727357532153 pbc="F F F"
Gd       0.00000000       0.00000000       0.00000000       0.00000000       0.00000000       0.15446606
Gd       0.00000000       0.00000000       5.82363636       0.00000000       0.00000000      -0.15446606
2
Properties=species:S:1:pos:R:3:forces:R:3 energy=-16.271895112884586 pbc="F F F"
Gd       0.00000000       0.00000000       0.00000000       0.00000000       0.00000000       0.10726988
Gd       0.00000000       0.00000000       5.88242424       0.00000000       0.00000000      -0.10726988
2
Properties=species:S:1:pos:R:3:forces:R:3 energy=-16.26729482717723 pbc="F F F"
Gd       0.00000000       0.00000000       0.00000000       0.00000000       0.00000000       0.05115611
Gd       0.00000000       0.00000000       5.94121212       0.00000000       0.00000000      -0.05115611
2
Properties=species:S:1:pos:R:3:forces:R:3 energy=-16.26521890859366 pbc="F F F"
Gd       0.00000000       0.00000000       0.00000000       0.00000000       0.00000000       0.02710294
Gd       0.00000000       0.00000000       6.00000000       0.00000000       0.00000000      -0.02710294
