2
Properties=species:S:1:pos:R:3:forces:R:3 energy=17003.22287359493 pbc="F F F"
Hg       0.00000000       0.00000000       0.00000000       0.00000000       0.00000000 -291098.75000000
Hg       0.00000000       0.00000000       0.18000000       0.00000000       0.00000000  291098.75000000
2
Properties=species:S:1:pos:R:3:forces:R:3 energy=6870.697482969927 pbc="F F F"
Hg       0.00000000       0.00000000       0.00000000       0.00000000       0.00000000  -95320.96875000
Hg       0.00000000       0.00000000       0.23878788       0.00000000       0.00000000   95320.96875000
2
Properties=species:S:1:pos:R:3:forces:R:3 energy=3296.495090391802 pbc="F F F"
Hg       0.00000000       0.00000000       0.00000000       0.00000000       0.00000000  -36703.37109375
Hg       0.00000000       0.00000000       0.29757576       0.00000000       0.00000000   36703.37109375
2
Properties=species:S:1:pos:R:3:forces:R:3 energy=1854.9169653949696 pbc="F F F"
Hg       0.00000000       0.00000000       0.00000000       0.00000000       0.00000000  -15639.96484375
Hg       0.00000000       0.00000000       0.35636364       0.00000000       0.00000000   15639.96484375
2
Properties=species:S:1:pos:R:3:forces:R:3 energy=1219.6548804403678 pbc="F F F"
Hg       0.00000000       0.00000000       0.00000000       0.00000000       0.00000000   -7178.74414062
Hg       0.00000000       0.00000000       0.41515152       0.00000000       0.00000000    7178.74414062
2
Properties=species:S:1:pos:R:3:forces:R:3 energy=919.7441138514766 pbc="F F F"
Hg       0.00000000       0.00000000       0.00000000       0.00000000       0.00000000   -3509.51269531
Hg       0.00000000       0.00000000       0.47393939       0.00000000       0.00000000    3509.51269531
2
Properties=species:S:1:pos:R:3:forces:R:3 energy=769.1215552799014 pbc="F F F"
Hg       0.00000000       0.00000000       0.00000000       0.00000000       0.00000000   -1824.22961426
Hg       0.00000000       0.00000000       0.53272727       0.00000000       0.00000000    1824.22961426
2
Properties=species:S:1:pos:R:3:forces:R:3 energy=688.4151954609696 pbc="F F F"
Hg       0.00000000       0.00000000       0.00000000       0.00000000       0.00000000   -1017.56585693
Hg       0.00000000       0.00000000       0.59151515       0.00000000       0.00000000    1017.56585693
2
Properties=species:S:1:pos:R:3:forces:R:3 energy=641.5531960189429 pbc="F F F"
Hg       0.00000000       0.00000000       0.00000000       0.00000000       0.00000000    -623.23394775
Hg       0.00000000       0.00000000       0.65030303       0.00000000       0.00000000     623.23394775
2
Properties=species:S:1:pos:R:3:forces:R:3 energy=611.1606180016489 pbc="F F F"
Hg       0.00000000       0.00000000       0.00000000       0.00000000       0.00000000    -436.22155762
Hg       0.00000000       0.00000000       0.70909091       0.00000000       0.00000000     436.22155762
2
Properties=species:S:1:pos:R:3:forces:R:3 energy=587.4764750999694 pbc="F F F"
Hg       0.00000000       0.00000000       0.00000000       0.00000000       0.00000000    -395.57934570
Hg       0.00000000       0.00000000       0.76787879       0.00000000       0.00000000     395.57934570
2
Properties=species:S:1:pos:R:3:forces:R:3 energy=560.0450178243605 pbc="F F F"
Hg       0.00000000       0.00000000       0.00000000       0.00000000       0.00000000    -559.25531006
Hg       0.00000000       0.00000000       0.82666667       0.00000000       0.00000000     559.25531006
2
Properties=species:S:1:pos:R:3:forces:R:3 energy=522.6887559689575 pbc="F F F"
Hg       0.00000000       0.00000000       0.00000000       0.00000000       0.00000000    -704.55438232
Hg       0.00000000       0.00000000       0.88545455       0.00000000       0.00000000     704.55438232
2
Properties=species:S:1:pos:R:3:forces:R:3 energy=477.7322440056302 pbc="F F F"
Hg       0.00000000       0.00000000       0.00000000       0.00000000       0.00000000    -823.80047607
Hg       0.00000000       0.00000000       0.94424242       0.00000000       0.00000000     823.80047607
2
Properties=species:S:1:pos:R:3:forces:R:3 energy=425.8568784694388 pbc="F F F"
Hg       0.00000000       0.00000000       0.00000000       0.00000000       0.00000000    -941.02758789
Hg       0.00000000       0.00000000       1.00303030       0.00000000       0.00000000     941.02758789
2
Properties=species:S:1:pos:R:3:forces:R:3 energy=367.32990183954126 pbc="F F F"
Hg       0.00000000       0.00000000       0.00000000       0.00000000       0.00000000   -1043.14294434
Hg       0.00000000       0.00000000       1.06181818       0.00000000       0.00000000    1043.14294434
2
Properties=species:S:1:pos:R:3:forces:R:3 energy=304.86875192660244 pbc="F F F"
Hg       0.00000000       0.00000000       0.00000000       0.00000000       0.00000000   -1063.11486816
Hg       0.00000000       0.00000000       1.12060606       0.00000000       0.00000000    1063.11486816
2
Properties=species:S:1:pos:R:3:forces:R:3 energy=244.00562484523633 pbc="F F F"
Hg       0.00000000       0.00000000       0.00000000       0.00000000       0.00000000   -1000.18817139
Hg       0.00000000       0.00000000       1.17939394       0.00000000       0.00000000    1000.18817139
2
Properties=species:S:1:pos:R:3:forces:R:3 energy=188.16054938016882 pbc="F F F"
Hg       0.00000000       0.00000000       0.00000000       0.00000000       0.00000000    -889.18505859
Hg       0.00000000       0.00000000       1.23818182       0.00000000       0.00000000     889.18505859
2
Properties=species:S:1:pos:R:3:forces:R:3 energy=140.57743737276647 pbc="F F F"
Hg       0.00000000       0.00000000       0.00000000       0.00000000       0.00000000    -724.01129150
Hg       0.00000000       0.00000000       1.29696970       0.00000000       0.00000000     724.01129150
2
Properties=species:S:1:pos:R:3:forces:R:3 energy=103.16771930546108 pbc="F F F"
Hg       0.00000000       0.00000000       0.00000000       0.00000000       0.00000000    -550.92999268
Hg       0.00000000       0.00000000       1.35575758       0.00000000       0.00000000     550.92999268
2
Properties=species:S:1:pos:R:3:forces:R:3 energy=75.31414679198402 pbc="F F F"
Hg       0.00000000       0.00000000       0.00000000       0.00000000       0.00000000    -402.15505981
Hg       0.00000000       0.00000000       1.41454545       0.00000000       0.00000000     402.15505981
2
Properties=species:S:1:pos:R:3:forces:R:3 energy=55.158390227280655 pbc="F F F"
Hg       0.00000000       0.00000000       0.00000000       0.00000000       0.00000000    -289.82571411
Hg       0.00000000       0.00000000       1.47333333       0.00000000       0.00000000     289.82571411
2
Properties=species:S:1:pos:R:3:forces:R:3 energy=40.60555157120772 pbc="F F F"
Hg       0.00000000       0.00000000       0.00000000       0.00000000       0.00000000    -209.41448975
Hg       0.00000000       0.00000000       1.53212121       0.00000000       0.00000000     209.41448975
2
Properties=species:S:1:pos:R:3:forces:R:3 energy=30.151637060643463 pbc="F F F"
Hg       0.00000000       0.00000000       0.00000000       0.00000000       0.00000000    -149.14053345
Hg       0.00000000       0.00000000       1.59090909       0.00000000       0.00000000     149.14053345
2
Properties=species:S:1:pos:R:3:forces:R:3 energy=22.727822180947264 pbc="F F F"
Hg       0.00000000       0.00000000       0.00000000       0.00000000       0.00000000    -106.21784210
Hg       0.00000000       0.00000000       1.64969697       0.00000000       0.00000000     106.21784210
2
Properties=species:S:1:pos:R:3:forces:R:3 energy=17.391390618712368 pbc="F F F"
Hg       0.00000000       0.00000000       0.00000000       0.00000000       0.00000000     -77.03868866
Hg       0.00000000       0.00000000       1.70848485       0.00000000       0.00000000      77.03868866
2
Properties=species:S:1:pos:R:3:forces:R:3 energy=13.521904118144183 pbc="F F F"
Hg       0.00000000       0.00000000       0.00000000       0.00000000       0.00000000     -55.61769104
Hg       0.00000000       0.00000000       1.76727273       0.00000000       0.00000000      55.61769104
2
Properties=species:S:1:pos:R:3:forces:R:3 energy=10.738207056822926 pbc="F F F"
Hg       0.00000000       0.00000000       0.00000000       0.00000000       0.00000000     -40.03936386
Hg       0.00000000       0.00000000       1.82606061       0.00000000       0.00000000      40.03936386
2
Properties=species:S:1:pos:R:3:forces:R:3 energy=8.708953331556827 pbc="F F F"
Hg       0.00000000       0.00000000       0.00000000       0.00000000       0.00000000     -29.79106522
Hg       0.00000000       0.00000000       1.88484848       0.00000000       0.00000000      29.79106522
2
Properties=species:S:1:pos:R:3:forces:R:3 energy=7.158418021155932 pbc="F F F"
Hg       0.00000000       0.00000000       0.00000000       0.00000000       0.00000000     -23.47201347
Hg       0.00000000       0.00000000       1.94363636       0.00000000       0.00000000      23.47201347
2
Properties=species:S:1:pos:R:3:forces:R:3 energy=5.903916219244295 pbc="F F F"
Hg       0.00000000       0.00000000       0.00000000       0.00000000       0.00000000     -19.48106384
Hg       0.00000000       0.00000000       2.00242424       0.00000000       0.00000000      19.48106384
2
Properties=species:S:1:pos:R:3:forces:R:3 energy=4.8456087516616915 pbc="F F F"
Hg       0.00000000       0.00000000       0.00000000       0.00000000       0.00000000     -16.64562798
Hg       0.00000000       0.00000000       2.06121212       0.00000000       0.00000000      16.64562798
2
Properties=species:S:1:pos:R:3:forces:R:3 energy=3.9376854226289533 pbc="F F F"
Hg       0.00000000       0.00000000       0.00000000       0.00000000       0.00000000     -14.28764057
Hg       0.00000000       0.00000000       2.12000000       0.00000000       0.00000000      14.28764057
2
Properties=species:S:1:pos:R:3:forces:R:3 energy=3.162400996233048 pbc="F F F"
Hg       0.00000000       0.00000000       0.00000000       0.00000000       0.00000000     -12.10721397
Hg       0.00000000       0.00000000       2.17878788       0.00000000       0.00000000      12.10721397
2
Properties=species:S:1:pos:R:3:forces:R:3 energy=2.51199772788778 pbc="F F F"
Hg       0.00000000       0.00000000       0.00000000       0.00000000       0.00000000     -10.04123688
Hg       0.00000000       0.00000000       2.23757576       0.00000000       0.00000000      10.04123688
2
Properties=species:S:1:pos:R:3:forces:R:3 energy=1.9786812524123536 pbc="F F F"
Hg       0.00000000       0.00000000       0.00000000       0.00000000       0.00000000      -8.13494301
Hg       0.00000000       0.00000000       2.29636364       0.00000000       0.00000000       8.13494301
2
Properties=species:S:1:pos:R:3:forces:R:3 energy=1.551114022604353 pbc="F F F"
Hg       0.00000000       0.00000000       0.00000000       0.00000000       0.00000000      -6.45284414
Hg       0.00000000       0.00000000       2.35515152       0.00000000       0.00000000       6.45284414
2
Properties=species:S:1:pos:R:3:forces:R:3 energy=1.214765707355337 pbc="F F F"
Hg       0.00000000       0.00000000       0.00000000       0.00000000       0.00000000      -5.03565836
Hg       0.00000000       0.00000000       2.41393939       0.00000000       0.00000000       5.03565836
2
Properties=species:S:1:pos:R:3:forces:R:3 energy=0.9536961398862811 pbc="F F F"
Hg       0.00000000       0.00000000       0.00000000       0.00000000       0.00000000      -3.89037681
Hg       0.00000000       0.00000000       2.47272727       0.00000000       0.00000000       3.89037681
2
Properties=species:S:1:pos:R:3:forces:R:3 energy=0.7524108543529084 pbc="F F F"
Hg       0.00000000       0.00000000       0.00000000       0.00000000       0.00000000      -2.99674177
Hg       0.00000000       0.00000000       2.53151515       0.00000000       0.00000000       2.99674177
2
Properties=species:S:1:pos:R:3:forces:R:3 energy=0.5971250857813901 pbc="F F F"
Hg       0.00000000       0.00000000       0.00000000       0.00000000       0.00000000      -2.31869197
Hg       0.00000000       0.00000000       2.59030303       0.00000000       0.00000000       2.31869197
2
Properties=species:S:1:pos:R:3:forces:R:3 energy=0.4763791009904661 pbc="F F F"
Hg       0.00000000       0.00000000       0.00000000       0.00000000       0.00000000      -1.81468725
Hg       0.00000000       0.00000000       2.64909091       0.00000000       0.00000000       1.81468725
2
Properties=species:S:1:pos:R:3:forces:R:3 energy=0.38114638339349544 pbc="F F F"
Hg       0.00000000       0.00000000       0.00000000       0.00000000       0.00000000      -1.44423401
Hg       0.00000000       0.00000000       2.70787879       0.00000000       0.00000000       1.44423401
2
Properties=species:S:1:pos:R:3:forces:R:3 energy=0.304669008633293 pbc="F F F"
Hg       0.00000000       0.00000000       0.00000000       0.00000000       0.00000000      -1.17105770
Hg       0.00000000       0.00000000       2.76666667       0.00000000       0.00000000       1.17105770
2
Properties=species:S:1:pos:R:3:forces:R:3 energy=0.24215461469206245 pbc="F F F"
Hg       0.00000000       0.00000000       0.00000000       0.00000000       0.00000000      -0.96467662
Hg       0.00000000       0.00000000       2.82545455       0.00000000       0.00000000       0.96467662
2
Properties=species:S:1:pos:R:3:forces:R:3 energy=0.1904020558040153 pbc="F F F"
Hg       0.00000000       0.00000000       0.00000000       0.00000000       0.00000000      -0.80167180
Hg       0.00000000       0.00000000       2.88424242       0.00000000       0.00000000       0.80167180
2
Properties=species:S:1:pos:R:3:forces:R:3 energy=0.14735764603165802 pbc="F F F"
Hg       0.00000000       0.00000000       0.00000000       0.00000000       0.00000000      -0.66645950
Hg       0.00000000       0.00000000       2.94303030       0.00000000       0.00000000       0.66645950
2
Properties=species:S:1:pos:R:3:forces:R:3 energy=0.11166481144602071 pbc="F F F"
Hg       0.00000000       0.00000000       0.00000000       0.00000000       0.00000000      -0.55070269
Hg       0.00000000       0.00000000       3.00181818       0.00000000       0.00000000       0.55070269
2
Properties=species:S:1:pos:R:3:forces:R:3 energy=0.08229107230381728 pbc="F F F"
Hg       0.00000000       0.00000000       0.00000000       0.00000000       0.00000000      -0.45121458
Hg       0.00000000       0.00000000       3.06060606       0.00000000       0.00000000       0.45121458
2
Properties=species:S:1:pos:R:3:forces:R:3 energy=0.0583071534824692 pbc="F F F"
Hg       0.00000000       0.00000000       0.00000000       0.00000000       0.00000000      -0.36735320
Hg       0.00000000       0.00000000       3.11939394       0.00000000       0.00000000       0.36735320
2
Properties=species:S:1:pos:R:3:forces:R:3 energy=0.038792173958604306 pbc="F F F"
Hg       0.00000000       0.00000000       0.00000000       0.00000000       0.00000000      -0.29913309
Hg       0.00000000       0.00000000       3.17818182       0.00000000       0.00000000       0.29913309
2
Properties=species:S:1:pos:R:3:forces:R:3 energy=0.02283863533053203 pbc="F F F"
Hg       0.00000000       0.00000000       0.00000000       0.00000000       0.00000000      -0.24604842
Hg       0.00000000       0.00000000       3.23696970       0.00000000       0.00000000       0.24604842
2
Properties=species:S:1:pos:R:3:forces:R:3 energy=0.00960379973545155 pbc="F F F"
Hg       0.00000000       0.00000000       0.00000000       0.00000000       0.00000000      -0.20614207
Hg       0.00000000       0.00000000       3.29575758       0.00000000       0.00000000       0.20614207
2
Properties=species:S:1:pos:R:3:forces:R:3 energy=-0.0015899322677078095 pbc="F F F"
Hg       0.00000000       0.00000000       0.00000000       0.00000000       0.00000000      -0.17596751
Hg       0.00000000       0.00000000       3.35454545       0.00000000       0.00000000       0.17596751
2
Properties=species:S:1:pos:R:3:forces:R:3 energy=-0.01120261628690404 pbc="F F F"
Hg       0.00000000       0.00000000       0.00000000       0.00000000       0.00000000      -0.15179744
Hg       0.00000000       0.00000000       3.41333333       0.00000000       0.00000000       0.15179744
2
Properties=species:S:1:pos:R:3:forces:R:3 energy=-0.019500698339028302 pbc="F F F"
Hg       0.00000000       0.00000000       0.00000000       0.00000000       0.00000000      -0.13089527
Hg       0.00000000       0.00000000       3.47212121       0.00000000       0.00000000       0.13089527
2
Properties=species:S:1:pos:R:3:forces:R:3 energy=-0.026629551215410975 pbc="F F F"
Hg       0.00000000       0.00000000       0.00000000       0.00000000       0.00000000      -0.11191032
Hg       0.00000000       0.00000000       3.53090909       0.00000000       0.00000000       0.11191032
2
Properties=species:S:1:pos:R:3:forces:R:3 energy=-0.03268965038566683 pbc="F F F"
Hg       0.00000000       0.00000000       0.00000000       0.00000000       0.00000000      -0.09452136
Hg       0.00000000       0.00000000       3.58969697       0.00000000       0.00000000       0.09452136
2
Properties=species:S:1:pos:R:3:forces:R:3 energy=-0.03777730422596047 pbc="F F F"
Hg       0.00000000       0.00000000       0.00000000       0.00000000       0.00000000      -0.07887425
Hg       0.00000000       0.00000000       3.64848485       0.00000000       0.00000000       0.07887425
2
Properties=species:S:1:pos:R:3:forces:R:3 energy=-0.04200065185634474 pbc="F F F"
Hg       0.00000000       0.00000000       0.00000000       0.00000000       0.00000000      -0.06514180
Hg       0.00000000       0.00000000       3.70727273       0.00000000       0.00000000       0.06514180
2
Properties=species:S:1:pos:R:3:forces:R:3 energy=-0.0454745205782543 pbc="F F F"
Hg       0.00000000       0.00000000       0.00000000       0.00000000       0.00000000      -0.05333275
Hg       0.00000000       0.00000000       3.76606061       0.00000000       0.00000000       0.05333275
2
Properties=species:S:1:pos:R:3:forces:R:3 energy=-0.048305672572167106 pbc="F F F"
Hg       0.00000000       0.00000000       0.00000000       0.00000000       0.00000000      -0.04326782
Hg       0.00000000       0.00000000       3.82484848       0.00000000       0.00000000       0.04326782
2
Properties=species:S:1:pos:R:3:forces:R:3 energy=-0.050589489796227974 pbc="F F F"
Hg       0.00000000       0.00000000       0.00000000       0.00000000       0.00000000      -0.03462299
Hg       0.00000000       0.00000000       3.88363636       0.00000000       0.00000000       0.03462299
2
Properties=species:S:1:pos:R:3:forces:R:3 energy=-0.052396858584046586 pbc="F F F"
Hg       0.00000000       0.00000000       0.00000000       0.00000000       0.00000000      -0.02699227
Hg       0.00000000       0.00000000       3.94242424       0.00000000       0.00000000       0.02699227
2
Properties=species:S:1:pos:R:3:forces:R:3 energy=-0.05377400459710712 pbc="F F F"
Hg       0.00000000       0.00000000       0.00000000       0.00000000       0.00000000      -0.01993735
Hg       0.00000000       0.00000000       4.00121212       0.00000000       0.00000000       0.01993735
2
Properties=species:S:1:pos:R:3:forces:R:3 energy=-0.054743785697369506 pbc="F F F"
Hg       0.00000000       0.00000000       0.00000000       0.00000000       0.00000000      -0.01304662
Hg       0.00000000       0.00000000       4.06000000       0.00000000       0.00000000       0.01304662
2
Properties=species:S:1:pos:R:3:forces:R:3 energy=-0.05530475911602313 pbc="F F F"
Hg       0.00000000       0.00000000       0.00000000       0.00000000       0.00000000      -0.00600366
Hg       0.00000000       0.00000000       4.11878788       0.00000000       0.00000000       0.00600366
2
Properties=species:S:1:pos:R:3:forces:R:3 energy=-0.05544346168271505 pbc="F F F"
Hg       0.00000000       0.00000000       0.00000000       0.00000000       0.00000000       0.00134751
Hg       0.00000000       0.00000000       4.17757576       0.00000000       0.00000000      -0.00134751
2
Properties=species:S:1:pos:R:3:forces:R:3 energy=-0.05514133602514862 pbc="F F F"
Hg       0.00000000       0.00000000       0.00000000       0.00000000       0.00000000       0.00896012
Hg       0.00000000       0.00000000       4.23636364       0.00000000       0.00000000      -0.00896012
2
Properties=species:S:1:pos:R:3:forces:R:3 energy=-0.05438974645331376 pbc="F F F"
Hg       0.00000000       0.00000000       0.00000000       0.00000000       0.00000000       0.01658237
Hg       0.00000000       0.00000000       4.29515152       0.00000000       0.00000000      -0.01658237
2
Properties=species:S:1:pos:R:3:forces:R:3 energy=-0.05319947714457106 pbc="F F F"
Hg       0.00000000       0.00000000       0.00000000       0.00000000       0.00000000       0.02380305
Hg       0.00000000       0.00000000       4.35393939       0.00000000       0.00000000      -0.02380305
2
Properties=species:S:1:pos:R:3:forces:R:3 energy=-0.05160846575353381 pbc="F F F"
Hg       0.00000000       0.00000000       0.00000000       0.00000000       0.00000000       0.03013585
Hg       0.00000000       0.00000000       4.41272727       0.00000000       0.00000000      -0.03013585
2
Properties=species:S:1:pos:R:3:forces:R:3 energy=-0.049682801688120615 pbc="F F F"
Hg       0.00000000       0.00000000       0.00000000       0.00000000       0.00000000       0.03511249
Hg       0.00000000       0.00000000       4.47151515       0.00000000       0.00000000      -0.03511249
2
Properties=species:S:1:pos:R:3:forces:R:3 energy=-0.0475136053294743 pbc="F F F"
Hg       0.00000000       0.00000000       0.00000000       0.00000000       0.00000000       0.03838298
Hg       0.00000000       0.00000000       4.53030303       0.00000000       0.00000000      -0.03838298
2
Properties=species:S:1:pos:R:3:forces:R:3 energy=-0.04520673664774807 pbc="F F F"
Hg       0.00000000       0.00000000       0.00000000       0.00000000       0.00000000       0.03978587
Hg       0.00000000       0.00000000       4.58909091       0.00000000       0.00000000      -0.03978587
2
Properties=species:S:1:pos:R:3:forces:R:3 energy=-0.04287114193658373 pbc="F F F"
Hg       0.00000000       0.00000000       0.00000000       0.00000000       0.00000000       0.03938994
Hg       0.00000000       0.00000000       4.64787879       0.00000000       0.00000000      -0.03938994
2
Properties=species:S:1:pos:R:3:forces:R:3 energy=-0.04060510085102412 pbc="F F F"
Hg       0.00000000       0.00000000       0.00000000       0.00000000       0.00000000       0.03748758
Hg       0.00000000       0.00000000       4.70666667       0.00000000       0.00000000      -0.03748758
2
Properties=species:S:1:pos:R:3:forces:R:3 energy=-0.03848411013978964 pbc="F F F"
Hg       0.00000000       0.00000000       0.00000000       0.00000000       0.00000000       0.03454050
Hg       0.00000000       0.00000000       4.76545455       0.00000000       0.00000000      -0.03454050
2
Properties=species:S:1:pos:R:3:forces:R:3 energy=-0.0365540184927263 pbc="F F F"
Hg       0.00000000       0.00000000       0.00000000       0.00000000       0.00000000       0.03108016
Hg       0.00000000       0.00000000       4.82424242       0.00000000       0.00000000      -0.03108016
2
Properties=species:S:1:pos:R:3:forces:R:3 energy=-0.034830597840433394 pbc="F F F"
Hg       0.00000000       0.00000000       0.00000000       0.00000000       0.00000000       0.02757406
Hg       0.00000000       0.00000000       4.88303030       0.00000000       0.00000000      -0.02757406
2
Properties=species:S:1:pos:R:3:forces:R:3 energy=-0.03330728597641352 pbc="F F F"
Hg       0.00000000       0.00000000       0.00000000       0.00000000       0.00000000       0.02429505
Hg       0.00000000       0.00000000       4.94181818       0.00000000       0.00000000      -0.02429505
2
Properties=species:S:1:pos:R:3:forces:R:3 energy=-0.0319695744776614 pbc="F F F"
Hg       0.00000000       0.00000000       0.00000000       0.00000000       0.00000000       0.02123376
Hg       0.00000000       0.00000000       5.00060606       0.00000000       0.00000000      -0.02123376
2
Properties=species:S:1:pos:R:3:forces:R:3 energy=-0.03081178881909248 pbc="F F F"
Hg       0.00000000       0.00000000       0.00000000       0.00000000       0.00000000       0.01811058
Hg       0.00000000       0.00000000       5.05939394       0.00000000       0.00000000      -0.01811058
2
Properties=species:S:1:pos:R:3:forces:R:3 energy=-0.029849610087425024 pbc="F F F"
Hg       0.00000000       0.00000000       0.00000000       0.00000000       0.00000000       0.01450886
Hg       0.00000000       0.00000000       5.11818182       0.00000000       0.00000000      -0.01450886
2
Properties=species:S:1:pos:R:3:forces:R:3 energy=-0.029122231012821288 pbc="F F F"
Hg       0.00000000       0.00000000       0.00000000       0.00000000       0.00000000       0.01008499
Hg       0.00000000       0.00000000       5.17696970       0.00000000       0.00000000      -0.01008499
2
Properties=species:S:1:pos:R:3:forces:R:3 energy=-0.02868141638844593 pbc="F F F"
Hg       0.00000000       0.00000000       0.00000000       0.00000000       0.00000000       0.00478196
Hg       0.00000000       0.00000000       5.23575758       0.00000000       0.00000000      -0.00478196
2
Properties=species:S:1:pos:R:3:forces:R:3 energy=-0.028568925492891358 pbc="F F F"
Hg       0.00000000       0.00000000       0.00000000       0.00000000       0.00000000      -0.00095161
Hg       0.00000000       0.00000000       5.29454545       0.00000000       0.00000000       0.00095161
2
Properties=species:S:1:pos:R:3:forces:R:3 energy=-0.02877743260477115 pbc="F F F"
Hg       0.00000000       0.00000000       0.00000000       0.00000000       0.00000000      -0.00583973
Hg       0.00000000       0.00000000       5.35333333       0.00000000       0.00000000       0.00583973
2
Properties=species:S:1:pos:R:3:forces:R:3 energy=-0.029198657087047157 pbc="F F F"
Hg       0.00000000       0.00000000       0.00000000       0.00000000       0.00000000      -0.00785458
Hg       0.00000000       0.00000000       5.41212121       0.00000000       0.00000000       0.00785458
2
Properties=species:S:1:pos:R:3:forces:R:3 energy=-0.02962711129006506 pbc="F F F"
Hg       0.00000000       0.00000000       0.00000000       0.00000000       0.00000000      -0.00623906
Hg       0.00000000       0.00000000       5.47090909       0.00000000       0.00000000       0.00623906
2
Properties=species:S:1:pos:R:3:forces:R:3 energy=-0.029904554974274813 pbc="F F F"
Hg       0.00000000       0.00000000       0.00000000       0.00000000       0.00000000      -0.00315944
Hg       0.00000000       0.00000000       5.52969697       0.00000000       0.00000000       0.00315944
2
Properties=species:S:1:pos:R:3:forces:R:3 energy=-0.029997673404383682 pbc="F F F"
Hg       0.00000000       0.00000000       0.00000000       0.00000000       0.00000000       0.00003931
Hg       0.00000000       0.00000000       5.58848485       0.00000000       0.00000000      -0.00003931
2
Properties=species:S:1:pos:R:3:forces:R:3 energy=-0.029890807349731884 pbc="F F F"
Hg       0.00000000       0.00000000       0.00000000       0.00000000       0.00000000       0.00365341
Hg       0.00000000       0.00000000       5.64727273       0.00000000       0.00000000      -0.00365341
2
Properties=species:S:1:pos:R:3:forces:R:3 energy=-0.02957117053067347 pbc="F F F"
Hg       0.00000000       0.00000000       0.00000000       0.00000000       0.00000000       0.00706941
Hg       0.00000000       0.00000000       5.70606061       0.00000000       0.00000000      -0.00706941
2
Properties=species:S:1:pos:R:3:forces:R:3 energy=-0.02909610392574614 pbc="F F F"
Hg       0.00000000       0.00000000       0.00000000       0.00000000       0.00000000       0.00864577
Hg       0.00000000       0.00000000       5.76484848       0.00000000       0.00000000      -0.00864577
2
Properties=species:S:1:pos:R:3:forces:R:3 energy=-0.02860315465957502 pbc="F F F"
Hg       0.00000000       0.00000000       0.00000000       0.00000000       0.00000000       0.00787942
Hg       0.00000000       0.00000000       5.82363636       0.00000000       0.00000000      -0.00787942
2
Properties=species:S:1:pos:R:3:forces:R:3 energy=-0.028173702982485904 pbc="F F F"
Hg       0.00000000       0.00000000       0.00000000       0.00000000       0.00000000       0.00684390
Hg       0.00000000       0.00000000       5.88242424       0.00000000       0.00000000      -0.00684390
2
Properties=species:S:1:pos:R:3:forces:R:3 energy=-0.027784583389824084 pbc="F F F"
Hg       0.00000000       0.00000000       0.00000000       0.00000000       0.00000000       0.00646499
Hg       0.00000000       0.00000000       5.94121212       0.00000000       0.00000000      -0.00646499
2
Properties=species:S:1:pos:R:3:forces:R:3 energy=-0.02741228360195635 pbc="F F F"
Hg       0.00000000       0.00000000       0.00000000       0.00000000       0.00000000       0.00617705
Hg       0.00000000       0.00000000       6.00000000       0.00000000       0.00000000      -0.00617705
