2
Properties=species:S:1:pos:R:3:forces:R:3 energy=15706.271228770509 pbc="F F F"
Ir       0.00000000       0.00000000       0.00000000       0.00000000       0.00000000 -275194.93750000
Ir       0.00000000       0.00000000       0.18000000       0.00000000       0.00000000  275194.93750000
2
Properties=species:S:1:pos:R:3:forces:R:3 energy=6110.756580333009 pbc="F F F"
Ir       0.00000000       0.00000000       0.00000000       0.00000000       0.00000000  -90498.55468750
Ir       0.00000000       0.00000000       0.23878788       0.00000000       0.00000000   90498.55468750
2
Properties=species:S:1:pos:R:3:forces:R:3 energy=2710.9321174455513 pbc="F F F"
Ir       0.00000000       0.00000000       0.00000000       0.00000000       0.00000000  -35005.42187500
Ir       0.00000000       0.00000000       0.29757576       0.00000000       0.00000000   35005.42187500
2
Properties=species:S:1:pos:R:3:forces:R:3 energy=1333.2864875659068 pbc="F F F"
Ir       0.00000000       0.00000000       0.00000000       0.00000000       0.00000000  -14986.11523438
Ir       0.00000000       0.00000000       0.35636364       0.00000000       0.00000000   14986.11523438
2
Properties=species:S:1:pos:R:3:forces:R:3 energy=723.3530769277111 pbc="F F F"
Ir       0.00000000       0.00000000       0.00000000       0.00000000       0.00000000   -6910.49023438
Ir       0.00000000       0.00000000       0.41515152       0.00000000       0.00000000    6910.49023438
2
Properties=species:S:1:pos:R:3:forces:R:3 energy=434.06496048530425 pbc="F F F"
Ir       0.00000000       0.00000000       0.00000000       0.00000000       0.00000000   -3393.77441406
Ir       0.00000000       0.00000000       0.47393939       0.00000000       0.00000000    3393.77441406
2
Properties=species:S:1:pos:R:3:forces:R:3 energy=288.15083697232274 pbc="F F F"
Ir       0.00000000       0.00000000       0.00000000       0.00000000       0.00000000   -1770.42016602
Ir       0.00000000       0.00000000       0.53272727       0.00000000       0.00000000    1770.42016602
2
Properties=species:S:1:pos:R:3:forces:R:3 energy=209.80641562678568 pbc="F F F"
Ir       0.00000000       0.00000000       0.00000000       0.00000000       0.00000000    -986.89544678
Ir       0.00000000       0.00000000       0.59151515       0.00000000       0.00000000     986.89544678
2
Properties=species:S:1:pos:R:3:forces:R:3 energy=164.50326932783744 pbc="F F F"
Ir       0.00000000       0.00000000       0.00000000       0.00000000       0.00000000    -599.35339355
Ir       0.00000000       0.00000000       0.65030303       0.00000000       0.00000000     599.35339355
2
Properties=species:S:1:pos:R:3:forces:R:3 energy=135.50918984886746 pbc="F F F"
Ir       0.00000000       0.00000000       0.00000000       0.00000000       0.00000000    -410.20205688
Ir       0.00000000       0.00000000       0.70909091       0.00000000       0.00000000     410.20205688
2
Properties=species:S:1:pos:R:3:forces:R:3 energy=114.28730433244186 pbc="F F F"
Ir       0.00000000       0.00000000       0.00000000       0.00000000       0.00000000    -323.77978516
Ir       0.00000000       0.00000000       0.76787879       0.00000000       0.00000000     323.77978516
2
Properties=species:S:1:pos:R:3:forces:R:3 energy=96.49300830538009 pbc="F F F"
Ir       0.00000000       0.00000000       0.00000000       0.00000000       0.00000000    -285.81570435
Ir       0.00000000       0.00000000       0.82666667       0.00000000       0.00000000     285.81570435
2
Properties=species:S:1:pos:R:3:forces:R:3 energy=80.4956026416455 pbc="F F F"
Ir       0.00000000       0.00000000       0.00000000       0.00000000       0.00000000    -259.52273560
Ir       0.00000000       0.00000000       0.88545455       0.00000000       0.00000000     259.52273560
2
Properties=species:S:1:pos:R:3:forces:R:3 energy=65.74798350058387 pbc="F F F"
Ir       0.00000000       0.00000000       0.00000000       0.00000000       0.00000000    -243.46687317
Ir       0.00000000       0.00000000       0.94424242       0.00000000       0.00000000     243.46687317
2
Properties=species:S:1:pos:R:3:forces:R:3 energy=51.96715759405519 pbc="F F F"
Ir       0.00000000       0.00000000       0.00000000       0.00000000       0.00000000    -223.11608887
Ir       0.00000000       0.00000000       1.00303030       0.00000000       0.00000000     223.11608887
2
Properties=species:S:1:pos:R:3:forces:R:3 energy=39.758574658761745 pbc="F F F"
Ir       0.00000000       0.00000000       0.00000000       0.00000000       0.00000000    -191.25543213
Ir       0.00000000       0.00000000       1.06181818       0.00000000       0.00000000     191.25543213
2
Properties=species:S:1:pos:R:3:forces:R:3 energy=29.444410731338603 pbc="F F F"
Ir       0.00000000       0.00000000       0.00000000       0.00000000       0.00000000    -160.12413025
Ir       0.00000000       0.00000000       1.12060606       0.00000000       0.00000000     160.12413025
2
Properties=species:S:1:pos:R:3:forces:R:3 energy=21.03471189623034 pbc="F F F"
Ir       0.00000000       0.00000000       0.00000000       0.00000000       0.00000000    -123.96021271
Ir       0.00000000       0.00000000       1.17939394       0.00000000       0.00000000     123.96021271
2
Properties=species:S:1:pos:R:3:forces:R:3 energy=14.968549897409417 pbc="F F F"
Ir       0.00000000       0.00000000       0.00000000       0.00000000       0.00000000     -84.20159149
Ir       0.00000000       0.00000000       1.23818182       0.00000000       0.00000000      84.20159149
2
Properties=species:S:1:pos:R:3:forces:R:3 energy=10.779756429452828 pbc="F F F"
Ir       0.00000000       0.00000000       0.00000000       0.00000000       0.00000000     -60.75907516
Ir       0.00000000       0.00000000       1.29696970       0.00000000       0.00000000      60.75907516
2
Properties=species:S:1:pos:R:3:forces:R:3 energy=7.669756217767306 pbc="F F F"
Ir       0.00000000       0.00000000       0.00000000       0.00000000       0.00000000     -45.78072739
Ir       0.00000000       0.00000000       1.35575758       0.00000000       0.00000000      45.78072739
2
Properties=species:S:1:pos:R:3:forces:R:3 energy=5.302621438480192 pbc="F F F"
Ir       0.00000000       0.00000000       0.00000000       0.00000000       0.00000000     -35.71228409
Ir       0.00000000       0.00000000       1.41454545       0.00000000       0.00000000      35.71228409
2
Properties=species:S:1:pos:R:3:forces:R:3 energy=3.36227811706328 pbc="F F F"
Ir       0.00000000       0.00000000       0.00000000       0.00000000       0.00000000     -31.00523567
Ir       0.00000000       0.00000000       1.47333333       0.00000000       0.00000000      31.00523567
2
Properties=species:S:1:pos:R:3:forces:R:3 energy=1.6120230223998169 pbc="F F F"
Ir       0.00000000       0.00000000       0.00000000       0.00000000       0.00000000     -28.64738274
Ir       0.00000000       0.00000000       1.53212121       0.00000000       0.00000000      28.64738274
2
Properties=species:S:1:pos:R:3:forces:R:3 energy=-0.0018440201600126022 pbc="F F F"
Ir       0.00000000       0.00000000       0.00000000       0.00000000       0.00000000     -26.16072083
Ir       0.00000000       0.00000000       1.59090909       0.00000000       0.00000000      26.16072083
2
Properties=species:S:1:pos:R:3:forces:R:3 energy=-1.4538862694601329 pbc="F F F"
Ir       0.00000000       0.00000000       0.00000000       0.00000000       0.00000000     -23.18822670
Ir       0.00000000       0.00000000       1.64969697       0.00000000       0.00000000      23.18822670
2
Properties=species:S:1:pos:R:3:forces:R:3 energy=-2.7273628862005785 pbc="F F F"
Ir       0.00000000       0.00000000       0.00000000       0.00000000       0.00000000     -20.16815186
Ir       0.00000000       0.00000000       1.70848485       0.00000000       0.00000000      20.16815186
2
Properties=species:S:1:pos:R:3:forces:R:3 energy=-3.831724544438357 pbc="F F F"
Ir       0.00000000       0.00000000       0.00000000       0.00000000       0.00000000     -17.46916580
Ir       0.00000000       0.00000000       1.76727273       0.00000000       0.00000000      17.46916580
2
Properties=species:S:1:pos:R:3:forces:R:3 energy=-4.788187022805129 pbc="F F F"
Ir       0.00000000       0.00000000       0.00000000       0.00000000       0.00000000     -15.11204910
Ir       0.00000000       0.00000000       1.82606061       0.00000000       0.00000000      15.11204910
2
Properties=species:S:1:pos:R:3:forces:R:3 energy=-5.610931523246285 pbc="F F F"
Ir       0.00000000       0.00000000       0.00000000       0.00000000       0.00000000     -12.87915707
Ir       0.00000000       0.00000000       1.88484848       0.00000000       0.00000000      12.87915707
2
Properties=species:S:1:pos:R:3:forces:R:3 energy=-6.301178419945539 pbc="F F F"
Ir       0.00000000       0.00000000       0.00000000       0.00000000       0.00000000     -10.58699608
Ir       0.00000000       0.00000000       1.94363636       0.00000000       0.00000000      10.58699608
2
Properties=species:S:1:pos:R:3:forces:R:3 energy=-6.853975574801719 pbc="F F F"
Ir       0.00000000       0.00000000       0.00000000       0.00000000       0.00000000      -8.20952988
Ir       0.00000000       0.00000000       2.00242424       0.00000000       0.00000000       8.20952988
2
Properties=species:S:1:pos:R:3:forces:R:3 energy=-7.266027755484561 pbc="F F F"
Ir       0.00000000       0.00000000       0.00000000       0.00000000       0.00000000      -5.81238747
Ir       0.00000000       0.00000000       2.06121212       0.00000000       0.00000000       5.81238747
2
Properties=species:S:1:pos:R:3:forces:R:3 energy=-7.538674879305612 pbc="F F F"
Ir       0.00000000       0.00000000       0.00000000       0.00000000       0.00000000      -3.48231268
Ir       0.00000000       0.00000000       2.12000000       0.00000000       0.00000000       3.48231268
2
Properties=species:S:1:pos:R:3:forces:R:3 energy=-7.678750983521958 pbc="F F F"
Ir       0.00000000       0.00000000       0.00000000       0.00000000       0.00000000      -1.32042277
Ir       0.00000000       0.00000000       2.17878788       0.00000000       0.00000000       1.32042277
2
Properties=species:S:1:pos:R:3:forces:R:3 energy=-7.6994246368448 pbc="F F F"
Ir       0.00000000       0.00000000       0.00000000       0.00000000       0.00000000       0.56142992
Ir       0.00000000       0.00000000       2.23757576       0.00000000       0.00000000      -0.56142992
2
Properties=species:S:1:pos:R:3:forces:R:3 energy=-7.620111504714022 pbc="F F F"
Ir       0.00000000       0.00000000       0.00000000       0.00000000       0.00000000       2.06881118
Ir       0.00000000       0.00000000       2.29636364       0.00000000       0.00000000      -2.06881118
2
Properties=species:S:1:pos:R:3:forces:R:3 energy=-7.464452289203733 pbc="F F F"
Ir       0.00000000       0.00000000       0.00000000       0.00000000       0.00000000       3.15647388
Ir       0.00000000       0.00000000       2.35515152       0.00000000       0.00000000      -3.15647388
2
Properties=species:S:1:pos:R:3:forces:R:3 energy=-7.256893494233172 pbc="F F F"
Ir       0.00000000       0.00000000       0.00000000       0.00000000       0.00000000       3.84242558
Ir       0.00000000       0.00000000       2.41393939       0.00000000       0.00000000      -3.84242558
2
Properties=species:S:1:pos:R:3:forces:R:3 energy=-7.019224077676921 pbc="F F F"
Ir       0.00000000       0.00000000       0.00000000       0.00000000       0.00000000       4.19494104
Ir       0.00000000       0.00000000       2.47272727       0.00000000       0.00000000      -4.19494104
2
Properties=species:S:1:pos:R:3:forces:R:3 energy=-6.768452734854611 pbc="F F F"
Ir       0.00000000       0.00000000       0.00000000       0.00000000       0.00000000       4.30323219
Ir       0.00000000       0.00000000       2.53151515       0.00000000       0.00000000      -4.30323219
2
Properties=species:S:1:pos:R:3:forces:R:3 energy=-6.516289205316726 pbc="F F F"
Ir       0.00000000       0.00000000       0.00000000       0.00000000       0.00000000       4.25714684
Ir       0.00000000       0.00000000       2.59030303       0.00000000       0.00000000      -4.25714684
2
Properties=species:S:1:pos:R:3:forces:R:3 energy=-6.269257638811496 pbc="F F F"
Ir       0.00000000       0.00000000       0.00000000       0.00000000       0.00000000       4.14214277
Ir       0.00000000       0.00000000       2.64909091       0.00000000       0.00000000      -4.14214277
2
Properties=species:S:1:pos:R:3:forces:R:3 energy=-6.0292468696534645 pbc="F F F"
Ir       0.00000000       0.00000000       0.00000000       0.00000000       0.00000000       4.02684975
Ir       0.00000000       0.00000000       2.70787879       0.00000000       0.00000000      -4.02684975
2
Properties=species:S:1:pos:R:3:forces:R:3 energy=-5.795262731039929 pbc="F F F"
Ir       0.00000000       0.00000000       0.00000000       0.00000000       0.00000000       3.93733883
Ir       0.00000000       0.00000000       2.76666667       0.00000000       0.00000000      -3.93733883
2
Properties=species:S:1:pos:R:3:forces:R:3 energy=-5.56612269131174 pbc="F F F"
Ir       0.00000000       0.00000000       0.00000000       0.00000000       0.00000000       3.85700560
Ir       0.00000000       0.00000000       2.82545455       0.00000000       0.00000000      -3.85700560
2
Properties=species:S:1:pos:R:3:forces:R:3 energy=-5.342263059147482 pbc="F F F"
Ir       0.00000000       0.00000000       0.00000000       0.00000000       0.00000000       3.75163937
Ir       0.00000000       0.00000000       2.88424242       0.00000000       0.00000000      -3.75163937
2
Properties=species:S:1:pos:R:3:forces:R:3 energy=-5.126172256056895 pbc="F F F"
Ir       0.00000000       0.00000000       0.00000000       0.00000000       0.00000000       3.58807206
Ir       0.00000000       0.00000000       2.94303030       0.00000000       0.00000000      -3.58807206
2
Properties=species:S:1:pos:R:3:forces:R:3 energy=-4.921891484787167 pbc="F F F"
Ir       0.00000000       0.00000000       0.00000000       0.00000000       0.00000000       3.34886742
Ir       0.00000000       0.00000000       3.00181818       0.00000000       0.00000000      -3.34886742
2
Properties=species:S:1:pos:R:3:forces:R:3 energy=-4.733768486590346 pbc="F F F"
Ir       0.00000000       0.00000000       0.00000000       0.00000000       0.00000000       3.04201293
Ir       0.00000000       0.00000000       3.06060606       0.00000000       0.00000000      -3.04201293
2
Properties=species:S:1:pos:R:3:forces:R:3 energy=-4.564935241069346 pbc="F F F"
Ir       0.00000000       0.00000000       0.00000000       0.00000000       0.00000000       2.69939947
Ir       0.00000000       0.00000000       3.11939394       0.00000000       0.00000000      -2.69939947
2
Properties=species:S:1:pos:R:3:forces:R:3 energy=-4.416220634941407 pbc="F F F"
Ir       0.00000000       0.00000000       0.00000000       0.00000000       0.00000000       2.36494088
Ir       0.00000000       0.00000000       3.17818182       0.00000000       0.00000000      -2.36494088
2
Properties=species:S:1:pos:R:3:forces:R:3 energy=-4.285945696221947 pbc="F F F"
Ir       0.00000000       0.00000000       0.00000000       0.00000000       0.00000000       2.07721615
Ir       0.00000000       0.00000000       3.23696970       0.00000000       0.00000000      -2.07721615
2
Properties=species:S:1:pos:R:3:forces:R:3 energy=-4.170689487751763 pbc="F F F"
Ir       0.00000000       0.00000000       0.00000000       0.00000000       0.00000000       1.85508060
Ir       0.00000000       0.00000000       3.29575758       0.00000000       0.00000000      -1.85508060
2
Properties=species:S:1:pos:R:3:forces:R:3 energy=-4.06661810605007 pbc="F F F"
Ir       0.00000000       0.00000000       0.00000000       0.00000000       0.00000000       1.69439650
Ir       0.00000000       0.00000000       3.35454545       0.00000000       0.00000000      -1.69439650
2
Properties=species:S:1:pos:R:3:forces:R:3 energy=-3.970638538538337 pbc="F F F"
Ir       0.00000000       0.00000000       0.00000000       0.00000000       0.00000000       1.57602847
Ir       0.00000000       0.00000000       3.41333333       0.00000000       0.00000000      -1.57602847
2
Properties=species:S:1:pos:R:3:forces:R:3 energy=-3.8809349326170266 pbc="F F F"
Ir       0.00000000       0.00000000       0.00000000       0.00000000       0.00000000       1.47724044
Ir       0.00000000       0.00000000       3.47212121       0.00000000       0.00000000      -1.47724044
2
Properties=species:S:1:pos:R:3:forces:R:3 energy=-3.79692978412236 pbc="F F F"
Ir       0.00000000       0.00000000       0.00000000       0.00000000       0.00000000       1.37984776
Ir       0.00000000       0.00000000       3.53090909       0.00000000       0.00000000      -1.37984776
2
Properties=species:S:1:pos:R:3:forces:R:3 energy=-3.718867877898851 pbc="F F F"
Ir       0.00000000       0.00000000       0.00000000       0.00000000       0.00000000       1.27415061
Ir       0.00000000       0.00000000       3.58969697       0.00000000       0.00000000      -1.27415061
2
Properties=species:S:1:pos:R:3:forces:R:3 energy=-3.6472948560314262 pbc="F F F"
Ir       0.00000000       0.00000000       0.00000000       0.00000000       0.00000000       1.15975761
Ir       0.00000000       0.00000000       3.64848485       0.00000000       0.00000000      -1.15975761
2
Properties=species:S:1:pos:R:3:forces:R:3 energy=-3.5825437695960898 pbc="F F F"
Ir       0.00000000       0.00000000       0.00000000       0.00000000       0.00000000       1.04370224
Ir       0.00000000       0.00000000       3.70727273       0.00000000       0.00000000      -1.04370224
2
Properties=species:S:1:pos:R:3:forces:R:3 energy=-3.52440888636575 pbc="F F F"
Ir       0.00000000       0.00000000       0.00000000       0.00000000       0.00000000       0.93636382
Ir       0.00000000       0.00000000       3.76606061       0.00000000       0.00000000      -0.93636382
2
Properties=species:S:1:pos:R:3:forces:R:3 energy=-3.472095289455365 pbc="F F F"
Ir       0.00000000       0.00000000       0.00000000       0.00000000       0.00000000       0.84697407
Ir       0.00000000       0.00000000       3.82484848       0.00000000       0.00000000      -0.84697407
2
Properties=species:S:1:pos:R:3:forces:R:3 energy=-3.424373575301818 pbc="F F F"
Ir       0.00000000       0.00000000       0.00000000       0.00000000       0.00000000       0.78047168
Ir       0.00000000       0.00000000       3.88363636       0.00000000       0.00000000      -0.78047168
2
Properties=species:S:1:pos:R:3:forces:R:3 energy=-3.3798833034943137 pbc="F F F"
Ir       0.00000000       0.00000000       0.00000000       0.00000000       0.00000000       0.73660564
Ir       0.00000000       0.00000000       3.94242424       0.00000000       0.00000000      -0.73660564
2
Properties=species:S:1:pos:R:3:forces:R:3 energy=-3.337411803128015 pbc="F F F"
Ir       0.00000000       0.00000000       0.00000000       0.00000000       0.00000000       0.71080565
Ir       0.00000000       0.00000000       4.00121212       0.00000000       0.00000000      -0.71080565
2
Properties=species:S:1:pos:R:3:forces:R:3 energy=-3.296095757712542 pbc="F F F"
Ir       0.00000000       0.00000000       0.00000000       0.00000000       0.00000000       0.69594395
Ir       0.00000000       0.00000000       4.06000000       0.00000000       0.00000000      -0.69594395
2
Properties=species:S:1:pos:R:3:forces:R:3 energy=-3.255525492293524 pbc="F F F"
Ir       0.00000000       0.00000000       0.00000000       0.00000000       0.00000000       0.68416452
Ir       0.00000000       0.00000000       4.11878788       0.00000000       0.00000000      -0.68416452
2
Properties=species:S:1:pos:R:3:forces:R:3 energy=-3.2157342477843667 pbc="F F F"
Ir       0.00000000       0.00000000       0.00000000       0.00000000       0.00000000       0.66835749
Ir       0.00000000       0.00000000       4.17757576       0.00000000       0.00000000      -0.66835749
2
Properties=species:S:1:pos:R:3:forces:R:3 energy=-3.177128420189153 pbc="F F F"
Ir       0.00000000       0.00000000       0.00000000       0.00000000       0.00000000       0.64310884
Ir       0.00000000       0.00000000       4.23636364       0.00000000       0.00000000      -0.64310884
2
Properties=species:S:1:pos:R:3:forces:R:3 energy=-3.1403690412262555 pbc="F F F"
Ir       0.00000000       0.00000000       0.00000000       0.00000000       0.00000000       0.60519105
Ir       0.00000000       0.00000000       4.29515152       0.00000000       0.00000000      -0.60519105
2
Properties=species:S:1:pos:R:3:forces:R:3 energy=-3.1062406766202293 pbc="F F F"
Ir       0.00000000       0.00000000       0.00000000       0.00000000       0.00000000       0.55372077
Ir       0.00000000       0.00000000       4.35393939       0.00000000       0.00000000      -0.55372077
2
Properties=species:S:1:pos:R:3:forces:R:3 energy=-3.075506185669546 pbc="F F F"
Ir       0.00000000       0.00000000       0.00000000       0.00000000       0.00000000       0.49006456
Ir       0.00000000       0.00000000       4.41272727       0.00000000       0.00000000      -0.49006456
2
Properties=species:S:1:pos:R:3:forces:R:3 energy=-3.048794731038683 pbc="F F F"
Ir       0.00000000       0.00000000       0.00000000       0.00000000       0.00000000       0.41756150
Ir       0.00000000       0.00000000       4.47151515       0.00000000       0.00000000      -0.41756150
2
Properties=species:S:1:pos:R:3:forces:R:3 energy=-3.026490510973508 pbc="F F F"
Ir       0.00000000       0.00000000       0.00000000       0.00000000       0.00000000       0.34099260
Ir       0.00000000       0.00000000       4.53030303       0.00000000       0.00000000      -0.34099260
2
Properties=species:S:1:pos:R:3:forces:R:3 energy=-3.0086737273602466 pbc="F F F"
Ir       0.00000000       0.00000000       0.00000000       0.00000000       0.00000000       0.26587650
Ir       0.00000000       0.00000000       4.58909091       0.00000000       0.00000000      -0.26587650
2
Properties=species:S:1:pos:R:3:forces:R:3 energy=-2.9950952278248986 pbc="F F F"
Ir       0.00000000       0.00000000       0.00000000       0.00000000       0.00000000       0.19763635
Ir       0.00000000       0.00000000       4.64787879       0.00000000       0.00000000      -0.19763635
2
Properties=species:S:1:pos:R:3:forces:R:3 energy=-2.985211009902942 pbc="F F F"
Ir       0.00000000       0.00000000       0.00000000       0.00000000       0.00000000       0.14084230
Ir       0.00000000       0.00000000       4.70666667       0.00000000       0.00000000      -0.14084230
2
Properties=species:S:1:pos:R:3:forces:R:3 energy=-2.9782476309253014 pbc="F F F"
Ir       0.00000000       0.00000000       0.00000000       0.00000000       0.00000000       0.09867695
Ir       0.00000000       0.00000000       4.76545455       0.00000000       0.00000000      -0.09867695
2
Properties=species:S:1:pos:R:3:forces:R:3 energy=-2.973292292227383 pbc="F F F"
Ir       0.00000000       0.00000000       0.00000000       0.00000000       0.00000000       0.07261127
Ir       0.00000000       0.00000000       4.82424242       0.00000000       0.00000000      -0.07261127
2
Properties=species:S:1:pos:R:3:forces:R:3 energy=-2.969399593651712 pbc="F F F"
Ir       0.00000000       0.00000000       0.00000000       0.00000000       0.00000000       0.06235066
Ir       0.00000000       0.00000000       4.88303030       0.00000000       0.00000000      -0.06235066
2
Properties=species:S:1:pos:R:3:forces:R:3 energy=-2.965690134301551 pbc="F F F"
Ir       0.00000000       0.00000000       0.00000000       0.00000000       0.00000000       0.06588045
Ir       0.00000000       0.00000000       4.94181818       0.00000000       0.00000000      -0.06588045
2
Properties=species:S:1:pos:R:3:forces:R:3 energy=-2.9614518372691965 pbc="F F F"
Ir       0.00000000       0.00000000       0.00000000       0.00000000       0.00000000       0.07964623
Ir       0.00000000       0.00000000       5.00060606       0.00000000       0.00000000      -0.07964623
2
Properties=species:S:1:pos:R:3:forces:R:3 energy=-2.9562181826081435 pbc="F F F"
Ir       0.00000000       0.00000000       0.00000000       0.00000000       0.00000000       0.09888001
Ir       0.00000000       0.00000000       5.05939394       0.00000000       0.00000000      -0.09888001
2
Properties=species:S:1:pos:R:3:forces:R:3 energy=-2.9498241533358014 pbc="F F F"
Ir       0.00000000       0.00000000       0.00000000       0.00000000       0.00000000       0.11820477
Ir       0.00000000       0.00000000       5.11818182       0.00000000       0.00000000      -0.11820477
2
Properties=species:S:1:pos:R:3:forces:R:3 energy=-2.9424201112284116 pbc="F F F"
Ir       0.00000000       0.00000000       0.00000000       0.00000000       0.00000000       0.13249592
Ir       0.00000000       0.00000000       5.17696970       0.00000000       0.00000000      -0.13249592
2
Properties=species:S:1:pos:R:3:forces:R:3 energy=-2.934421042174099 pbc="F F F"
Ir       0.00000000       0.00000000       0.00000000       0.00000000       0.00000000       0.13799554
Ir       0.00000000       0.00000000       5.23575758       0.00000000       0.00000000      -0.13799554
2
Properties=species:S:1:pos:R:3:forces:R:3 energy=-2.9263849753688196 pbc="F F F"
Ir       0.00000000       0.00000000       0.00000000       0.00000000       0.00000000       0.13403288
Ir       0.00000000       0.00000000       5.29454545       0.00000000       0.00000000      -0.13403288
2
Properties=species:S:1:pos:R:3:forces:R:3 energy=-2.9187548456872805 pbc="F F F"
Ir       0.00000000       0.00000000       0.00000000       0.00000000       0.00000000       0.12552598
Ir       0.00000000       0.00000000       5.35333333       0.00000000       0.00000000      -0.12552598
2
Properties=species:S:1:pos:R:3:forces:R:3 energy=-2.9115277976102587 pbc="F F F"
Ir       0.00000000       0.00000000       0.00000000       0.00000000       0.00000000       0.12170902
Ir       0.00000000       0.00000000       5.41212121       0.00000000       0.00000000      -0.12170902
2
Properties=species:S:1:pos:R:3:forces:R:3 energy=-2.9043246505623177 pbc="F F F"
Ir       0.00000000       0.00000000       0.00000000       0.00000000       0.00000000       0.12334865
Ir       0.00000000       0.00000000       5.47090909       0.00000000       0.00000000      -0.12334865
2
Properties=species:S:1:pos:R:3:forces:R:3 energy=-2.897178377663297 pbc="F F F"
Ir       0.00000000       0.00000000       0.00000000       0.00000000       0.00000000       0.11760949
Ir       0.00000000       0.00000000       5.52969697       0.00000000       0.00000000      -0.11760949
2
Properties=species:S:1:pos:R:3:forces:R:3 energy=-2.8907093734782614 pbc="F F F"
Ir       0.00000000       0.00000000       0.00000000       0.00000000       0.00000000       0.10160984
Ir       0.00000000       0.00000000       5.58848485       0.00000000       0.00000000      -0.10160984
2
Properties=species:S:1:pos:R:3:forces:R:3 energy=-2.885197140769499 pbc="F F F"
Ir       0.00000000       0.00000000       0.00000000       0.00000000       0.00000000       0.08714345
Ir       0.00000000       0.00000000       5.64727273       0.00000000       0.00000000      -0.08714345
2
Properties=species:S:1:pos:R:3:forces:R:3 energy=-2.880287731893032 pbc="F F F"
Ir       0.00000000       0.00000000       0.00000000       0.00000000       0.00000000       0.08119400
Ir       0.00000000       0.00000000       5.70606061       0.00000000       0.00000000      -0.08119400
2
Properties=species:S:1:pos:R:3:forces:R:3 energy=-2.8756015363614553 pbc="F F F"
Ir       0.00000000       0.00000000       0.00000000       0.00000000       0.00000000       0.07716233
Ir       0.00000000       0.00000000       5.76484848       0.00000000       0.00000000      -0.07716233
2
Properties=species:S:1:pos:R:3:forces:R:3 energy=-2.87141714690022 pbc="F F F"
Ir       0.00000000       0.00000000       0.00000000       0.00000000       0.00000000       0.06323603
Ir       0.00000000       0.00000000       5.82363636       0.00000000       0.00000000      -0.06323603
2
Properties=species:S:1:pos:R:3:forces:R:3 energy=-2.868376141017864 pbc="F F F"
Ir       0.00000000       0.00000000       0.00000000       0.00000000       0.00000000       0.03964513
Ir       0.00000000       0.00000000       5.88242424       0.00000000       0.00000000      -0.03964513
2
Properties=species:S:1:pos:R:3:forces:R:3 energy=-2.8667097350826913 pbc="F F F"
Ir       0.00000000       0.00000000       0.00000000       0.00000000       0.00000000       0.01830372
Ir       0.00000000       0.00000000       5.94121212       0.00000000       0.00000000      -0.01830372
2
Properties=species:S:1:pos:R:3:forces:R:3 energy=-2.865967480610822 pbc="F F F"
Ir       0.00000000       0.00000000       0.00000000       0.00000000       0.00000000       0.00964539
Ir       0.00000000       0.00000000       6.00000000       0.00000000       0.00000000      -0.00964539
