2
Properties=species:S:1:pos:R:3:forces:R:3 energy=5422.599207852446 pbc="F F F"
Kr       0.00000000       0.00000000       0.00000000       0.00000000       0.00000000  -87404.57812500
Kr       0.00000000       0.00000000       0.18000000       0.00000000       0.00000000   87404.57812500
2
Properties=species:S:1:pos:R:3:forces:R:3 energy=2277.7483777774887 pbc="F F F"
Kr       0.00000000       0.00000000       0.00000000       0.00000000       0.00000000  -31001.75390625
Kr       0.00000000       0.00000000       0.23878788       0.00000000       0.00000000   31001.75390625
2
Properties=species:S:1:pos:R:3:forces:R:3 energy=1074.5066785619065 pbc="F F F"
Kr       0.00000000       0.00000000       0.00000000       0.00000000       0.00000000  -12957.55273438
Kr       0.00000000       0.00000000       0.29757576       0.00000000       0.00000000   12957.55273438
2
Properties=species:S:1:pos:R:3:forces:R:3 energy=546.6950330604295 pbc="F F F"
Kr       0.00000000       0.00000000       0.00000000       0.00000000       0.00000000   -6005.14843750
Kr       0.00000000       0.00000000       0.35636364       0.00000000       0.00000000    6005.14843750
2
Properties=species:S:1:pos:R:3:forces:R:3 energy=293.95550059922994 pbc="F F F"
Kr       0.00000000       0.00000000       0.00000000       0.00000000       0.00000000   -2984.42480469
Kr       0.00000000       0.00000000       0.41515152       0.00000000       0.00000000    2984.42480469
2
Properties=species:S:1:pos:R:3:forces:R:3 energy=165.28565504668563 pbc="F F F"
Kr       0.00000000       0.00000000       0.00000000       0.00000000       0.00000000   -1562.07922363
Kr       0.00000000       0.00000000       0.47393939       0.00000000       0.00000000    1562.07922363
2
Properties=species:S:1:pos:R:3:forces:R:3 energy=96.62085253976561 pbc="F F F"
Kr       0.00000000       0.00000000       0.00000000       0.00000000       0.00000000    -852.55151367
Kr       0.00000000       0.00000000       0.53272727       0.00000000       0.00000000     852.55151367
2
Properties=species:S:1:pos:R:3:forces:R:3 energy=58.520331534482494 pbc="F F F"
Kr       0.00000000       0.00000000       0.00000000       0.00000000       0.00000000    -482.21990967
Kr       0.00000000       0.00000000       0.59151515       0.00000000       0.00000000     482.21990967
2
Properties=species:S:1:pos:R:3:forces:R:3 energy=36.65399103665963 pbc="F F F"
Kr       0.00000000       0.00000000       0.00000000       0.00000000       0.00000000    -281.45297241
Kr       0.00000000       0.00000000       0.65030303       0.00000000       0.00000000     281.45297241
2
Properties=species:S:1:pos:R:3:forces:R:3 energy=23.721639186031503 pbc="F F F"
Kr       0.00000000       0.00000000       0.00000000       0.00000000       0.00000000    -169.03689575
Kr       0.00000000       0.00000000       0.70909091       0.00000000       0.00000000     169.03689575
2
Properties=species:S:1:pos:R:3:forces:R:3 energy=15.85581195189238 pbc="F F F"
Kr       0.00000000       0.00000000       0.00000000       0.00000000       0.00000000    -104.36349487
Kr       0.00000000       0.00000000       0.76787879       0.00000000       0.00000000     104.36349487
2
Properties=species:S:1:pos:R:3:forces:R:3 energy=10.93544900719285 pbc="F F F"
Kr       0.00000000       0.00000000       0.00000000       0.00000000       0.00000000     -66.28656006
Kr       0.00000000       0.00000000       0.82666667       0.00000000       0.00000000      66.28656006
2
Properties=species:S:1:pos:R:3:forces:R:3 energy=7.774113275811525 pbc="F F F"
Kr       0.00000000       0.00000000       0.00000000       0.00000000       0.00000000     -43.08419418
Kr       0.00000000       0.00000000       0.88545455       0.00000000       0.00000000      43.08419418
2
Properties=species:S:1:pos:R:3:forces:R:3 energy=5.701851481188052 pbc="F F F"
Kr       0.00000000       0.00000000       0.00000000       0.00000000       0.00000000     -28.58997154
Kr       0.00000000       0.00000000       0.94424242       0.00000000       0.00000000      28.58997154
2
Properties=species:S:1:pos:R:3:forces:R:3 energy=4.293062220126625 pbc="F F F"
Kr       0.00000000       0.00000000       0.00000000       0.00000000       0.00000000     -20.11533928
Kr       0.00000000       0.00000000       1.00303030       0.00000000       0.00000000      20.11533928
2
Properties=species:S:1:pos:R:3:forces:R:3 energy=3.285769364603414 pbc="F F F"
Kr       0.00000000       0.00000000       0.00000000       0.00000000       0.00000000     -14.38946819
Kr       0.00000000       0.00000000       1.06181818       0.00000000       0.00000000      14.38946819
2
Properties=species:S:1:pos:R:3:forces:R:3 energy=2.5709477855477347 pbc="F F F"
Kr       0.00000000       0.00000000       0.00000000       0.00000000       0.00000000     -10.20720291
Kr       0.00000000       0.00000000       1.12060606       0.00000000       0.00000000      10.20720291
2
Properties=species:S:1:pos:R:3:forces:R:3 energy=2.0574750077567496 pbc="F F F"
Kr       0.00000000       0.00000000       0.00000000       0.00000000       0.00000000      -7.44682550
Kr       0.00000000       0.00000000       1.17939394       0.00000000       0.00000000       7.44682550
2
Properties=species:S:1:pos:R:3:forces:R:3 energy=1.6792404784572956 pbc="F F F"
Kr       0.00000000       0.00000000       0.00000000       0.00000000       0.00000000      -5.51954794
Kr       0.00000000       0.00000000       1.23818182       0.00000000       0.00000000       5.51954794
2
Properties=species:S:1:pos:R:3:forces:R:3 energy=1.4001076634869016 pbc="F F F"
Kr       0.00000000       0.00000000       0.00000000       0.00000000       0.00000000      -4.02767086
Kr       0.00000000       0.00000000       1.29696970       0.00000000       0.00000000       4.02767086
2
Properties=species:S:1:pos:R:3:forces:R:3 energy=1.2007337755647849 pbc="F F F"
Kr       0.00000000       0.00000000       0.00000000       0.00000000       0.00000000      -2.79661083
Kr       0.00000000       0.00000000       1.35575758       0.00000000       0.00000000       2.79661083
2
Properties=species:S:1:pos:R:3:forces:R:3 energy=1.0656427569468305 pbc="F F F"
Kr       0.00000000       0.00000000       0.00000000       0.00000000       0.00000000      -1.85371733
Kr       0.00000000       0.00000000       1.41454545       0.00000000       0.00000000       1.85371733
2
Properties=species:S:1:pos:R:3:forces:R:3 energy=0.9761864223721993 pbc="F F F"
Kr       0.00000000       0.00000000       0.00000000       0.00000000       0.00000000      -1.24394011
Kr       0.00000000       0.00000000       1.47333333       0.00000000       0.00000000       1.24394011
2
Properties=species:S:1:pos:R:3:forces:R:3 energy=0.9136046464733174 pbc="F F F"
Kr       0.00000000       0.00000000       0.00000000       0.00000000       0.00000000      -0.92798162
Kr       0.00000000       0.00000000       1.53212121       0.00000000       0.00000000       0.92798162
2
Properties=species:S:1:pos:R:3:forces:R:3 energy=0.8629408334888837 pbc="F F F"
Kr       0.00000000       0.00000000       0.00000000       0.00000000       0.00000000      -0.82270020
Kr       0.00000000       0.00000000       1.59090909       0.00000000       0.00000000       0.82270020
2
Properties=species:S:1:pos:R:3:forces:R:3 energy=0.814624518201168 pbc="F F F"
Kr       0.00000000       0.00000000       0.00000000       0.00000000       0.00000000      -0.83294165
Kr       0.00000000       0.00000000       1.64969697       0.00000000       0.00000000       0.83294165
2
Properties=species:S:1:pos:R:3:forces:R:3 energy=0.7642741684285153 pbc="F F F"
Kr       0.00000000       0.00000000       0.00000000       0.00000000       0.00000000      -0.88173932
Kr       0.00000000       0.00000000       1.70848485       0.00000000       0.00000000       0.88173932
2
Properties=species:S:1:pos:R:3:forces:R:3 energy=0.7111182769921798 pbc="F F F"
Kr       0.00000000       0.00000000       0.00000000       0.00000000       0.00000000      -0.92283601
Kr       0.00000000       0.00000000       1.76727273       0.00000000       0.00000000       0.92283601
2
Properties=species:S:1:pos:R:3:forces:R:3 energy=0.6564132160254066 pbc="F F F"
Kr       0.00000000       0.00000000       0.00000000       0.00000000       0.00000000      -0.93158782
Kr       0.00000000       0.00000000       1.82606061       0.00000000       0.00000000       0.93158782
2
Properties=species:S:1:pos:R:3:forces:R:3 energy=0.602428308089129 pbc="F F F"
Kr       0.00000000       0.00000000       0.00000000       0.00000000       0.00000000      -0.89782190
Kr       0.00000000       0.00000000       1.88484848       0.00000000       0.00000000       0.89782190
2
Properties=species:S:1:pos:R:3:forces:R:3 energy=0.5516203424395412 pbc="F F F"
Kr       0.00000000       0.00000000       0.00000000       0.00000000       0.00000000      -0.82517219
Kr       0.00000000       0.00000000       1.94363636       0.00000000       0.00000000       0.82517219
2
Properties=species:S:1:pos:R:3:forces:R:3 energy=0.5059016585006565 pbc="F F F"
Kr       0.00000000       0.00000000       0.00000000       0.00000000       0.00000000      -0.72740996
Kr       0.00000000       0.00000000       2.00242424       0.00000000       0.00000000       0.72740996
2
Properties=species:S:1:pos:R:3:forces:R:3 energy=0.46626920398511407 pbc="F F F"
Kr       0.00000000       0.00000000       0.00000000       0.00000000       0.00000000      -0.62060237
Kr       0.00000000       0.00000000       2.06121212       0.00000000       0.00000000       0.62060237
2
Properties=species:S:1:pos:R:3:forces:R:3 energy=0.4328592868041271 pbc="F F F"
Kr       0.00000000       0.00000000       0.00000000       0.00000000       0.00000000      -0.51745528
Kr       0.00000000       0.00000000       2.12000000       0.00000000       0.00000000       0.51745528
2
Properties=species:S:1:pos:R:3:forces:R:3 energy=0.4051919883731291 pbc="F F F"
Kr       0.00000000       0.00000000       0.00000000       0.00000000       0.00000000      -0.42630491
Kr       0.00000000       0.00000000       2.17878788       0.00000000       0.00000000       0.42630491
2
Properties=species:S:1:pos:R:3:forces:R:3 energy=0.38239510143001737 pbc="F F F"
Kr       0.00000000       0.00000000       0.00000000       0.00000000       0.00000000      -0.35249987
Kr       0.00000000       0.00000000       2.23757576       0.00000000       0.00000000       0.35249987
2
Properties=species:S:1:pos:R:3:forces:R:3 energy=0.3633343915265645 pbc="F F F"
Kr       0.00000000       0.00000000       0.00000000       0.00000000       0.00000000      -0.29969129
Kr       0.00000000       0.00000000       2.29636364       0.00000000       0.00000000       0.29969129
2
Properties=species:S:1:pos:R:3:forces:R:3 energy=0.3467013534884842 pbc="F F F"
Kr       0.00000000       0.00000000       0.00000000       0.00000000       0.00000000      -0.27015960
Kr       0.00000000       0.00000000       2.35515152       0.00000000       0.00000000       0.27015960
2
Properties=species:S:1:pos:R:3:forces:R:3 energy=0.33110252134806034 pbc="F F F"
Kr       0.00000000       0.00000000       0.00000000       0.00000000       0.00000000      -0.26441771
Kr       0.00000000       0.00000000       2.41393939       0.00000000       0.00000000       0.26441771
2
Properties=species:S:1:pos:R:3:forces:R:3 energy=0.31517949309179144 pbc="F F F"
Kr       0.00000000       0.00000000       0.00000000       0.00000000       0.00000000      -0.28065637
Kr       0.00000000       0.00000000       2.47272727       0.00000000       0.00000000       0.28065637
2
Properties=species:S:1:pos:R:3:forces:R:3 energy=0.29776191360877413 pbc="F F F"
Kr       0.00000000       0.00000000       0.00000000       0.00000000       0.00000000      -0.31426141
Kr       0.00000000       0.00000000       2.53151515       0.00000000       0.00000000       0.31426141
2
Properties=species:S:1:pos:R:3:forces:R:3 energy=0.27802901594933294 pbc="F F F"
Kr       0.00000000       0.00000000       0.00000000       0.00000000       0.00000000      -0.35807872
Kr       0.00000000       0.00000000       2.59030303       0.00000000       0.00000000       0.35807872
2
Properties=species:S:1:pos:R:3:forces:R:3 energy=0.25562991241766775 pbc="F F F"
Kr       0.00000000       0.00000000       0.00000000       0.00000000       0.00000000      -0.40347019
Kr       0.00000000       0.00000000       2.64909091       0.00000000       0.00000000       0.40347019
2
Properties=species:S:1:pos:R:3:forces:R:3 energy=0.2307276925055207 pbc="F F F"
Kr       0.00000000       0.00000000       0.00000000       0.00000000       0.00000000      -0.44192293
Kr       0.00000000       0.00000000       2.70787879       0.00000000       0.00000000       0.44192293
2
Properties=species:S:1:pos:R:3:forces:R:3 energy=0.20394057316290082 pbc="F F F"
Kr       0.00000000       0.00000000       0.00000000       0.00000000       0.00000000      -0.46668190
Kr       0.00000000       0.00000000       2.76666667       0.00000000       0.00000000       0.46668190
2
Properties=species:S:1:pos:R:3:forces:R:3 energy=0.17620296799867974 pbc="F F F"
Kr       0.00000000       0.00000000       0.00000000       0.00000000       0.00000000      -0.47389451
Kr       0.00000000       0.00000000       2.82545455       0.00000000       0.00000000       0.47389451
2
Properties=species:S:1:pos:R:3:forces:R:3 energy=0.14857981189249614 pbc="F F F"
Kr       0.00000000       0.00000000       0.00000000       0.00000000       0.00000000      -0.46294668
Kr       0.00000000       0.00000000       2.88424242       0.00000000       0.00000000       0.46294668
2
Properties=species:S:1:pos:R:3:forces:R:3 energy=0.12208603565676475 pbc="F F F"
Kr       0.00000000       0.00000000       0.00000000       0.00000000       0.00000000      -0.43601546
Kr       0.00000000       0.00000000       2.94303030       0.00000000       0.00000000       0.43601546
2
Properties=species:S:1:pos:R:3:forces:R:3 energy=0.0975501741863436 pbc="F F F"
Kr       0.00000000       0.00000000       0.00000000       0.00000000       0.00000000      -0.39711094
Kr       0.00000000       0.00000000       3.00181818       0.00000000       0.00000000       0.39711094
2
Properties=species:S:1:pos:R:3:forces:R:3 energy=0.07553709572620049 pbc="F F F"
Kr       0.00000000       0.00000000       0.00000000       0.00000000       0.00000000      -0.35098520
Kr       0.00000000       0.00000000       3.06060606       0.00000000       0.00000000       0.35098520
2
Properties=species:S:1:pos:R:3:forces:R:3 energy=0.05633419107883238 pbc="F F F"
Kr       0.00000000       0.00000000       0.00000000       0.00000000       0.00000000      -0.30221280
Kr       0.00000000       0.00000000       3.11939394       0.00000000       0.00000000       0.30221280
2
Properties=species:S:1:pos:R:3:forces:R:3 energy=0.03998069422276043 pbc="F F F"
Kr       0.00000000       0.00000000       0.00000000       0.00000000       0.00000000      -0.25459450
Kr       0.00000000       0.00000000       3.17818182       0.00000000       0.00000000       0.25459450
2
Properties=species:S:1:pos:R:3:forces:R:3 energy=0.02632296169177426 pbc="F F F"
Kr       0.00000000       0.00000000       0.00000000       0.00000000       0.00000000      -0.21087562
Kr       0.00000000       0.00000000       3.23696970       0.00000000       0.00000000       0.21087562
2
Properties=species:S:1:pos:R:3:forces:R:3 energy=0.015077429396999843 pbc="F F F"
Kr       0.00000000       0.00000000       0.00000000       0.00000000       0.00000000      -0.17271727
Kr       0.00000000       0.00000000       3.29575758       0.00000000       0.00000000       0.17271727
2
Properties=species:S:1:pos:R:3:forces:R:3 energy=0.00589211529382809 pbc="F F F"
Kr       0.00000000       0.00000000       0.00000000       0.00000000       0.00000000      -0.14083226
Kr       0.00000000       0.00000000       3.35454545       0.00000000       0.00000000       0.14083226
2
Properties=species:S:1:pos:R:3:forces:R:3 energy=-0.0016039385652439966 pbc="F F F"
Kr       0.00000000       0.00000000       0.00000000       0.00000000       0.00000000      -0.11519949
Kr       0.00000000       0.00000000       3.41333333       0.00000000       0.00000000       0.11519949
2
Properties=species:S:1:pos:R:3:forces:R:3 energy=-0.00776502080714106 pbc="F F F"
Kr       0.00000000       0.00000000       0.00000000       0.00000000       0.00000000      -0.09529573
Kr       0.00000000       0.00000000       3.47212121       0.00000000       0.00000000       0.09529573
2
Properties=species:S:1:pos:R:3:forces:R:3 energy=-0.01290477855712429 pbc="F F F"
Kr       0.00000000       0.00000000       0.00000000       0.00000000       0.00000000      -0.08030882
Kr       0.00000000       0.00000000       3.53090909       0.00000000       0.00000000       0.08030882
2
Properties=species:S:1:pos:R:3:forces:R:3 energy=-0.017285415680836944 pbc="F F F"
Kr       0.00000000       0.00000000       0.00000000       0.00000000       0.00000000      -0.06930581
Kr       0.00000000       0.00000000       3.58969697       0.00000000       0.00000000       0.06930581
2
Properties=species:S:1:pos:R:3:forces:R:3 energy=-0.021113395091222995 pbc="F F F"
Kr       0.00000000       0.00000000       0.00000000       0.00000000       0.00000000      -0.06136015
Kr       0.00000000       0.00000000       3.64848485       0.00000000       0.00000000       0.06136015
2
Properties=species:S:1:pos:R:3:forces:R:3 energy=-0.0245431669766452 pbc="F F F"
Kr       0.00000000       0.00000000       0.00000000       0.00000000       0.00000000      -0.05563178
Kr       0.00000000       0.00000000       3.70727273       0.00000000       0.00000000       0.05563178
2
Properties=species:S:1:pos:R:3:forces:R:3 energy=-0.027683869925662626 pbc="F F F"
Kr       0.00000000       0.00000000       0.00000000       0.00000000       0.00000000      -0.05141633
Kr       0.00000000       0.00000000       3.76606061       0.00000000       0.00000000       0.05141633
2
Properties=species:S:1:pos:R:3:forces:R:3 energy=-0.030607327868856 pbc="F F F"
Kr       0.00000000       0.00000000       0.00000000       0.00000000       0.00000000      -0.04816455
Kr       0.00000000       0.00000000       3.82484848       0.00000000       0.00000000       0.04816455
2
Properties=species:S:1:pos:R:3:forces:R:3 energy=-0.03335785145482789 pbc="F F F"
Kr       0.00000000       0.00000000       0.00000000       0.00000000       0.00000000      -0.04547681
Kr       0.00000000       0.00000000       3.88363636       0.00000000       0.00000000       0.04547681
2
Properties=species:S:1:pos:R:3:forces:R:3 energy=-0.035959930000452306 pbc="F F F"
Kr       0.00000000       0.00000000       0.00000000       0.00000000       0.00000000      -0.04308026
Kr       0.00000000       0.00000000       3.94242424       0.00000000       0.00000000       0.04308026
2
Properties=species:S:1:pos:R:3:forces:R:3 energy=-0.03842508205647706 pbc="F F F"
Kr       0.00000000       0.00000000       0.00000000       0.00000000       0.00000000      -0.04079365
Kr       0.00000000       0.00000000       4.00121212       0.00000000       0.00000000       0.04079365
2
Properties=species:S:1:pos:R:3:forces:R:3 energy=-0.04075593400317065 pbc="F F F"
Kr       0.00000000       0.00000000       0.00000000       0.00000000       0.00000000      -0.03849063
Kr       0.00000000       0.00000000       4.06000000       0.00000000       0.00000000       0.03849063
2
Properties=species:S:1:pos:R:3:forces:R:3 energy=-0.04294841738762233 pbc="F F F"
Kr       0.00000000       0.00000000       0.00000000       0.00000000       0.00000000      -0.03607251
Kr       0.00000000       0.00000000       4.11878788       0.00000000       0.00000000       0.03607251
2
Properties=species:S:1:pos:R:3:forces:R:3 energy=-0.04499329755817959 pbc="F F F"
Kr       0.00000000       0.00000000       0.00000000       0.00000000       0.00000000      -0.03345504
Kr       0.00000000       0.00000000       4.17757576       0.00000000       0.00000000       0.03345504
2
Properties=species:S:1:pos:R:3:forces:R:3 energy=-0.04687677858613965 pbc="F F F"
Kr       0.00000000       0.00000000       0.00000000       0.00000000       0.00000000      -0.03057481
Kr       0.00000000       0.00000000       4.23636364       0.00000000       0.00000000       0.03057481
2
Properties=species:S:1:pos:R:3:forces:R:3 energy=-0.04858247211266499 pbc="F F F"
Kr       0.00000000       0.00000000       0.00000000       0.00000000       0.00000000      -0.02740419
Kr       0.00000000       0.00000000       4.29515152       0.00000000       0.00000000       0.02740419
2
Properties=species:S:1:pos:R:3:forces:R:3 energy=-0.05009346331424182 pbc="F F F"
Kr       0.00000000       0.00000000       0.00000000       0.00000000       0.00000000      -0.02396252
Kr       0.00000000       0.00000000       4.35393939       0.00000000       0.00000000       0.02396252
2
Properties=species:S:1:pos:R:3:forces:R:3 energy=-0.05139566130582087 pbc="F F F"
Kr       0.00000000       0.00000000       0.00000000       0.00000000       0.00000000      -0.02030918
Kr       0.00000000       0.00000000       4.41272727       0.00000000       0.00000000       0.02030918
2
Properties=species:S:1:pos:R:3:forces:R:3 energy=-0.05247871963700983 pbc="F F F"
Kr       0.00000000       0.00000000       0.00000000       0.00000000       0.00000000      -0.01651951
Kr       0.00000000       0.00000000       4.47151515       0.00000000       0.00000000       0.01651951
2
Properties=species:S:1:pos:R:3:forces:R:3 energy=-0.053336427885536636 pbc="F F F"
Kr       0.00000000       0.00000000       0.00000000       0.00000000       0.00000000      -0.01264766
Kr       0.00000000       0.00000000       4.53030303       0.00000000       0.00000000       0.01264766
2
Properties=species:S:1:pos:R:3:forces:R:3 energy=-0.0539642434621861 pbc="F F F"
Kr       0.00000000       0.00000000       0.00000000       0.00000000       0.00000000      -0.00869507
Kr       0.00000000       0.00000000       4.58909091       0.00000000       0.00000000       0.00869507
2
Properties=species:S:1:pos:R:3:forces:R:3 energy=-0.05435600513930898 pbc="F F F"
Kr       0.00000000       0.00000000       0.00000000       0.00000000       0.00000000      -0.00460258
Kr       0.00000000       0.00000000       4.64787879       0.00000000       0.00000000       0.00460258
2
Properties=species:S:1:pos:R:3:forces:R:3 energy=-0.05450086194270626 pbc="F F F"
Kr       0.00000000       0.00000000       0.00000000       0.00000000       0.00000000      -0.00027983
Kr       0.00000000       0.00000000       4.70666667       0.00000000       0.00000000       0.00027983
2
Properties=species:S:1:pos:R:3:forces:R:3 energy=-0.054383278049356366 pbc="F F F"
Kr       0.00000000       0.00000000       0.00000000       0.00000000       0.00000000       0.00432672
Kr       0.00000000       0.00000000       4.76545455       0.00000000       0.00000000      -0.00432672
2
Properties=species:S:1:pos:R:3:forces:R:3 energy=-0.053987877832690274 pbc="F F F"
Kr       0.00000000       0.00000000       0.00000000       0.00000000       0.00000000       0.00914371
Kr       0.00000000       0.00000000       4.82424242       0.00000000       0.00000000      -0.00914371
2
Properties=species:S:1:pos:R:3:forces:R:3 energy=-0.05330951529127551 pbc="F F F"
Kr       0.00000000       0.00000000       0.00000000       0.00000000       0.00000000       0.01388600
Kr       0.00000000       0.00000000       4.88303030       0.00000000       0.00000000      -0.01388600
2
Properties=species:S:1:pos:R:3:forces:R:3 energy=-0.05236669332093039 pbc="F F F"
Kr       0.00000000       0.00000000       0.00000000       0.00000000       0.00000000       0.01803548
Kr       0.00000000       0.00000000       4.94181818       0.00000000       0.00000000      -0.01803548
2
Properties=species:S:1:pos:R:3:forces:R:3 energy=-0.051213786038219744 pbc="F F F"
Kr       0.00000000       0.00000000       0.00000000       0.00000000       0.00000000       0.02091861
Kr       0.00000000       0.00000000       5.00060606       0.00000000       0.00000000      -0.02091861
2
Properties=species:S:1:pos:R:3:forces:R:3 energy=-0.04994416727435434 pbc="F F F"
Kr       0.00000000       0.00000000       0.00000000       0.00000000       0.00000000       0.02192556
Kr       0.00000000       0.00000000       5.05939394       0.00000000       0.00000000      -0.02192556
2
Properties=species:S:1:pos:R:3:forces:R:3 energy=-0.04867769709059099 pbc="F F F"
Kr       0.00000000       0.00000000       0.00000000       0.00000000       0.00000000       0.02082078
Kr       0.00000000       0.00000000       5.11818182       0.00000000       0.00000000      -0.02082078
2
Properties=species:S:1:pos:R:3:forces:R:3 energy=-0.047529561673781986 pbc="F F F"
Kr       0.00000000       0.00000000       0.00000000       0.00000000       0.00000000       0.01804041
Kr       0.00000000       0.00000000       5.17696970       0.00000000       0.00000000      -0.01804041
2
Properties=species:S:1:pos:R:3:forces:R:3 energy=-0.04656643387015905 pbc="F F F"
Kr       0.00000000       0.00000000       0.00000000       0.00000000       0.00000000       0.01477458
Kr       0.00000000       0.00000000       5.23575758       0.00000000       0.00000000      -0.01477458
2
Properties=species:S:1:pos:R:3:forces:R:3 energy=-0.04577255218729325 pbc="F F F"
Kr       0.00000000       0.00000000       0.00000000       0.00000000       0.00000000       0.01248864
Kr       0.00000000       0.00000000       5.29454545       0.00000000       0.00000000      -0.01248864
2
Properties=species:S:1:pos:R:3:forces:R:3 energy=-0.04507163056026754 pbc="F F F"
Kr       0.00000000       0.00000000       0.00000000       0.00000000       0.00000000       0.01143722
Kr       0.00000000       0.00000000       5.35333333       0.00000000       0.00000000      -0.01143722
2
Properties=species:S:1:pos:R:3:forces:R:3 energy=-0.04445491695108788 pbc="F F F"
Kr       0.00000000       0.00000000       0.00000000       0.00000000       0.00000000       0.00896139
Kr       0.00000000       0.00000000       5.41212121       0.00000000       0.00000000      -0.00896139
2
Properties=species:S:1:pos:R:3:forces:R:3 energy=-0.04410331247043848 pbc="F F F"
Kr       0.00000000       0.00000000       0.00000000       0.00000000       0.00000000       0.00244383
Kr       0.00000000       0.00000000       5.47090909       0.00000000       0.00000000      -0.00244383
2
Properties=species:S:1:pos:R:3:forces:R:3 energy=-0.04416492898475927 pbc="F F F"
Kr       0.00000000       0.00000000       0.00000000       0.00000000       0.00000000      -0.00392146
Kr       0.00000000       0.00000000       5.52969697       0.00000000       0.00000000       0.00392146
2
Properties=species:S:1:pos:R:3:forces:R:3 energy=-0.04446827667679925 pbc="F F F"
Kr       0.00000000       0.00000000       0.00000000       0.00000000       0.00000000      -0.00572011
Kr       0.00000000       0.00000000       5.58848485       0.00000000       0.00000000       0.00572011
2
Properties=species:S:1:pos:R:3:forces:R:3 energy=-0.0448079847250219 pbc="F F F"
Kr       0.00000000       0.00000000       0.00000000       0.00000000       0.00000000      -0.00605302
Kr       0.00000000       0.00000000       5.64727273       0.00000000       0.00000000       0.00605302
2
Properties=species:S:1:pos:R:3:forces:R:3 energy=-0.04524382121187561 pbc="F F F"
Kr       0.00000000       0.00000000       0.00000000       0.00000000       0.00000000      -0.00941663
Kr       0.00000000       0.00000000       5.70606061       0.00000000       0.00000000       0.00941663
2
Properties=species:S:1:pos:R:3:forces:R:3 energy=-0.04594281262209745 pbc="F F F"
Kr       0.00000000       0.00000000       0.00000000       0.00000000       0.00000000      -0.01384452
Kr       0.00000000       0.00000000       5.76484848       0.00000000       0.00000000       0.01384452
2
Properties=species:S:1:pos:R:3:forces:R:3 energy=-0.046749509562528185 pbc="F F F"
Kr       0.00000000       0.00000000       0.00000000       0.00000000       0.00000000      -0.01242714
Kr       0.00000000       0.00000000       5.82363636       0.00000000       0.00000000       0.01242714
2
Properties=species:S:1:pos:R:3:forces:R:3 energy=-0.04729865580681906 pbc="F F F"
Kr       0.00000000       0.00000000       0.00000000       0.00000000       0.00000000      -0.00596444
Kr       0.00000000       0.00000000       5.88242424       0.00000000       0.00000000       0.00596444
2
Properties=species:S:1:pos:R:3:forces:R:3 energy=-0.04746413609656574 pbc="F F F"
Kr       0.00000000       0.00000000       0.00000000       0.00000000       0.00000000      -0.00006665
Kr       0.00000000       0.00000000       5.94121212       0.00000000       0.00000000       0.00006665
2
Properties=species:S:1:pos:R:3:forces:R:3 energy=-0.04738188858353576 pbc="F F F"
Kr       0.00000000       0.00000000       0.00000000       0.00000000       0.00000000       0.00209550
Kr       0.00000000       0.00000000       6.00000000       0.00000000       0.00000000      -0.00209550
