2
Properties=species:S:1:pos:R:3:forces:R:3 energy=820.7206862288095 pbc="F F F"
O        0.00000000       0.00000000       0.00000000       0.00000000       0.00000000   -7713.06982422
O        0.00000000       0.00000000       0.18000000       0.00000000       0.00000000    7713.06982422
2
Properties=species:S:1:pos:R:3:forces:R:3 energy=527.9127638671123 pbc="F F F"
O        0.00000000       0.00000000       0.00000000       0.00000000       0.00000000   -3101.87890625
O        0.00000000       0.00000000       0.23878788       0.00000000       0.00000000    3101.87890625
2
Properties=species:S:1:pos:R:3:forces:R:3 energy=400.2471144546337 pbc="F F F"
O        0.00000000       0.00000000       0.00000000       0.00000000       0.00000000   -1484.04016113
O        0.00000000       0.00000000       0.29757576       0.00000000       0.00000000    1484.04016113
2
Properties=species:S:1:pos:R:3:forces:R:3 energy=332.946974078526 pbc="F F F"
O        0.00000000       0.00000000       0.00000000       0.00000000       0.00000000    -906.37768555
O        0.00000000       0.00000000       0.35636364       0.00000000       0.00000000     906.37768555
2
Properties=species:S:1:pos:R:3:forces:R:3 energy=281.23979025172275 pbc="F F F"
O        0.00000000       0.00000000       0.00000000       0.00000000       0.00000000   -1019.27563477
O        0.00000000       0.00000000       0.41515152       0.00000000       0.00000000    1019.27563477
2
Properties=species:S:1:pos:R:3:forces:R:3 energy=214.18553001999126 pbc="F F F"
O        0.00000000       0.00000000       0.00000000       0.00000000       0.00000000   -1120.71215820
O        0.00000000       0.00000000       0.47393939       0.00000000       0.00000000    1120.71215820
2
Properties=species:S:1:pos:R:3:forces:R:3 energy=151.6018966383214 pbc="F F F"
O        0.00000000       0.00000000       0.00000000       0.00000000       0.00000000   -1003.05706787
O        0.00000000       0.00000000       0.53272727       0.00000000       0.00000000    1003.05706787
2
Properties=species:S:1:pos:R:3:forces:R:3 energy=99.55946201959046 pbc="F F F"
O        0.00000000       0.00000000       0.00000000       0.00000000       0.00000000    -763.42071533
O        0.00000000       0.00000000       0.59151515       0.00000000       0.00000000     763.42071533
2
Properties=species:S:1:pos:R:3:forces:R:3 energy=60.612867900102536 pbc="F F F"
O        0.00000000       0.00000000       0.00000000       0.00000000       0.00000000    -558.28955078
O        0.00000000       0.00000000       0.65030303       0.00000000       0.00000000     558.28955078
2
Properties=species:S:1:pos:R:3:forces:R:3 energy=34.15896870425107 pbc="F F F"
O        0.00000000       0.00000000       0.00000000       0.00000000       0.00000000    -348.43130493
O        0.00000000       0.00000000       0.70909091       0.00000000       0.00000000     348.43130493
2
Properties=species:S:1:pos:R:3:forces:R:3 energy=17.3454943342037 pbc="F F F"
O        0.00000000       0.00000000       0.00000000       0.00000000       0.00000000    -231.62838745
O        0.00000000       0.00000000       0.76787879       0.00000000       0.00000000     231.62838745
2
Properties=species:S:1:pos:R:3:forces:R:3 energy=6.838268286807566 pbc="F F F"
O        0.00000000       0.00000000       0.00000000       0.00000000       0.00000000    -132.97262573
O        0.00000000       0.00000000       0.82666667       0.00000000       0.00000000     132.97262573
2
Properties=species:S:1:pos:R:3:forces:R:3 energy=0.5833944208440434 pbc="F F F"
O        0.00000000       0.00000000       0.00000000       0.00000000       0.00000000     -86.37400818
O        0.00000000       0.00000000       0.88545455       0.00000000       0.00000000      86.37400818
2
Properties=species:S:1:pos:R:3:forces:R:3 energy=-3.6785480807765567 pbc="F F F"
O        0.00000000       0.00000000       0.00000000       0.00000000       0.00000000     -59.67001343
O        0.00000000       0.00000000       0.94424242       0.00000000       0.00000000      59.67001343
2
Properties=species:S:1:pos:R:3:forces:R:3 energy=-6.526619702074585 pbc="F F F"
O        0.00000000       0.00000000       0.00000000       0.00000000       0.00000000     -38.23434448
O        0.00000000       0.00000000       1.00303030       0.00000000       0.00000000      38.23434448
2
Properties=species:S:1:pos:R:3:forces:R:3 energy=-8.297640975774947 pbc="F F F"
O        0.00000000       0.00000000       0.00000000       0.00000000       0.00000000     -22.92068100
O        0.00000000       0.00000000       1.06181818       0.00000000       0.00000000      22.92068100
2
Properties=species:S:1:pos:R:3:forces:R:3 energy=-9.307406556745136 pbc="F F F"
O        0.00000000       0.00000000       0.00000000       0.00000000       0.00000000     -12.05102825
O        0.00000000       0.00000000       1.12060606       0.00000000       0.00000000      12.05102825
2
Properties=species:S:1:pos:R:3:forces:R:3 energy=-9.780337973863265 pbc="F F F"
O        0.00000000       0.00000000       0.00000000       0.00000000       0.00000000      -4.53923798
O        0.00000000       0.00000000       1.17939394       0.00000000       0.00000000       4.53923798
2
Properties=species:S:1:pos:R:3:forces:R:3 energy=-9.891562479879742 pbc="F F F"
O        0.00000000       0.00000000       0.00000000       0.00000000       0.00000000       0.40110573
O        0.00000000       0.00000000       1.23818182       0.00000000       0.00000000      -0.40110573
2
Properties=species:S:1:pos:R:3:forces:R:3 energy=-9.76701627315881 pbc="F F F"
O        0.00000000       0.00000000       0.00000000       0.00000000       0.00000000       3.60371614
O        0.00000000       0.00000000       1.29696970       0.00000000       0.00000000      -3.60371614
2
Properties=species:S:1:pos:R:3:forces:R:3 energy=-9.490391400356229 pbc="F F F"
O        0.00000000       0.00000000       0.00000000       0.00000000       0.00000000       5.65260696
O        0.00000000       0.00000000       1.35575758       0.00000000       0.00000000      -5.65260696
2
Properties=species:S:1:pos:R:3:forces:R:3 energy=-9.118022214776841 pbc="F F F"
O        0.00000000       0.00000000       0.00000000       0.00000000       0.00000000       6.89757824
O        0.00000000       0.00000000       1.41454545       0.00000000       0.00000000      -6.89757824
2
Properties=species:S:1:pos:R:3:forces:R:3 energy=-8.691362938780255 pbc="F F F"
O        0.00000000       0.00000000       0.00000000       0.00000000       0.00000000       7.53856945
O        0.00000000       0.00000000       1.47333333       0.00000000       0.00000000      -7.53856945
2
Properties=species:S:1:pos:R:3:forces:R:3 energy=-8.236669686641259 pbc="F F F"
O        0.00000000       0.00000000       0.00000000       0.00000000       0.00000000       7.93107939
O        0.00000000       0.00000000       1.53212121       0.00000000       0.00000000      -7.93107939
2
Properties=species:S:1:pos:R:3:forces:R:3 energy=-7.755031369670762 pbc="F F F"
O        0.00000000       0.00000000       0.00000000       0.00000000       0.00000000       8.49046516
O        0.00000000       0.00000000       1.59090909       0.00000000       0.00000000      -8.49046516
2
Properties=species:S:1:pos:R:3:forces:R:3 energy=-7.240855021285036 pbc="F F F"
O        0.00000000       0.00000000       0.00000000       0.00000000       0.00000000       8.89726925
O        0.00000000       0.00000000       1.64969697       0.00000000       0.00000000      -8.89726925
2
Properties=species:S:1:pos:R:3:forces:R:3 energy=-6.72768459219519 pbc="F F F"
O        0.00000000       0.00000000       0.00000000       0.00000000       0.00000000       8.40710258
O        0.00000000       0.00000000       1.70848485       0.00000000       0.00000000      -8.40710258
2
Properties=species:S:1:pos:R:3:forces:R:3 energy=-6.260573133823329 pbc="F F F"
O        0.00000000       0.00000000       0.00000000       0.00000000       0.00000000       7.51086664
O        0.00000000       0.00000000       1.76727273       0.00000000       0.00000000      -7.51086664
2
Properties=species:S:1:pos:R:3:forces:R:3 energy=-5.8353589911323605 pbc="F F F"
O        0.00000000       0.00000000       0.00000000       0.00000000       0.00000000       7.04035664
O        0.00000000       0.00000000       1.82606061       0.00000000       0.00000000      -7.04035664
2
Properties=species:S:1:pos:R:3:forces:R:3 energy=-5.4272743212039956 pbc="F F F"
O        0.00000000       0.00000000       0.00000000       0.00000000       0.00000000       6.84414339
O        0.00000000       0.00000000       1.88484848       0.00000000       0.00000000      -6.84414339
2
Properties=species:S:1:pos:R:3:forces:R:3 energy=-5.034461183694984 pbc="F F F"
O        0.00000000       0.00000000       0.00000000       0.00000000       0.00000000       6.46833658
O        0.00000000       0.00000000       1.94363636       0.00000000       0.00000000      -6.46833658
2
Properties=species:S:1:pos:R:3:forces:R:3 energy=-4.672806582499493 pbc="F F F"
O        0.00000000       0.00000000       0.00000000       0.00000000       0.00000000       5.79179573
O        0.00000000       0.00000000       2.00242424       0.00000000       0.00000000      -5.79179573
2
Properties=species:S:1:pos:R:3:forces:R:3 energy=-4.357052997040781 pbc="F F F"
O        0.00000000       0.00000000       0.00000000       0.00000000       0.00000000       4.93391132
O        0.00000000       0.00000000       2.06121212       0.00000000       0.00000000      -4.93391132
2
Properties=species:S:1:pos:R:3:forces:R:3 energy=-4.0931079917745565 pbc="F F F"
O        0.00000000       0.00000000       0.00000000       0.00000000       0.00000000       4.05291176
O        0.00000000       0.00000000       2.12000000       0.00000000       0.00000000      -4.05291176
2
Properties=species:S:1:pos:R:3:forces:R:3 energy=-3.8789116062988285 pbc="F F F"
O        0.00000000       0.00000000       0.00000000       0.00000000       0.00000000       3.25226688
O        0.00000000       0.00000000       2.17878788       0.00000000       0.00000000      -3.25226688
2
Properties=species:S:1:pos:R:3:forces:R:3 energy=-3.7084153648343263 pbc="F F F"
O        0.00000000       0.00000000       0.00000000       0.00000000       0.00000000       2.56789923
O        0.00000000       0.00000000       2.23757576       0.00000000       0.00000000      -2.56789923
2
Properties=species:S:1:pos:R:3:forces:R:3 energy=-3.5747538880183187 pbc="F F F"
O        0.00000000       0.00000000       0.00000000       0.00000000       0.00000000       1.99736214
O        0.00000000       0.00000000       2.29636364       0.00000000       0.00000000      -1.99736214
2
Properties=species:S:1:pos:R:3:forces:R:3 energy=-3.4715723671233576 pbc="F F F"
O        0.00000000       0.00000000       0.00000000       0.00000000       0.00000000       1.52913153
O        0.00000000       0.00000000       2.35515152       0.00000000       0.00000000      -1.52913153
2
Properties=species:S:1:pos:R:3:forces:R:3 energy=-3.393159224573656 pbc="F F F"
O        0.00000000       0.00000000       0.00000000       0.00000000       0.00000000       1.15308237
O        0.00000000       0.00000000       2.41393939       0.00000000       0.00000000      -1.15308237
2
Properties=species:S:1:pos:R:3:forces:R:3 energy=-3.334381106452457 pbc="F F F"
O        0.00000000       0.00000000       0.00000000       0.00000000       0.00000000       0.85940319
O        0.00000000       0.00000000       2.47272727       0.00000000       0.00000000      -0.85940319
2
Properties=species:S:1:pos:R:3:forces:R:3 energy=-3.290728694507224 pbc="F F F"
O        0.00000000       0.00000000       0.00000000       0.00000000       0.00000000       0.63637614
O        0.00000000       0.00000000       2.53151515       0.00000000       0.00000000      -0.63637614
2
Properties=species:S:1:pos:R:3:forces:R:3 energy=-3.258435968500206 pbc="F F F"
O        0.00000000       0.00000000       0.00000000       0.00000000       0.00000000       0.47069311
O        0.00000000       0.00000000       2.59030303       0.00000000       0.00000000      -0.47069311
2
Properties=species:S:1:pos:R:3:forces:R:3 energy=-3.234521237962716 pbc="F F F"
O        0.00000000       0.00000000       0.00000000       0.00000000       0.00000000       0.34923312
O        0.00000000       0.00000000       2.64909091       0.00000000       0.00000000      -0.34923312
2
Properties=species:S:1:pos:R:3:forces:R:3 energy=-3.2167309221358362 pbc="F F F"
O        0.00000000       0.00000000       0.00000000       0.00000000       0.00000000       0.26069140
O        0.00000000       0.00000000       2.70787879       0.00000000       0.00000000      -0.26069140
2
Properties=species:S:1:pos:R:3:forces:R:3 energy=-3.2033974675444283 pbc="F F F"
O        0.00000000       0.00000000       0.00000000       0.00000000       0.00000000       0.19635953
O        0.00000000       0.00000000       2.76666667       0.00000000       0.00000000      -0.19635953
2
Properties=species:S:1:pos:R:3:forces:R:3 energy=-3.193292251653385 pbc="F F F"
O        0.00000000       0.00000000       0.00000000       0.00000000       0.00000000       0.15000758
O        0.00000000       0.00000000       2.82545455       0.00000000       0.00000000      -0.15000758
2
Properties=species:S:1:pos:R:3:forces:R:3 energy=-3.1854939971947633 pbc="F F F"
O        0.00000000       0.00000000       0.00000000       0.00000000       0.00000000       0.11728259
O        0.00000000       0.00000000       2.88424242       0.00000000       0.00000000      -0.11728259
2
Properties=species:S:1:pos:R:3:forces:R:3 energy=-3.179298869356533 pbc="F F F"
O        0.00000000       0.00000000       0.00000000       0.00000000       0.00000000       0.09497850
O        0.00000000       0.00000000       2.94303030       0.00000000       0.00000000      -0.09497850
2
Properties=species:S:1:pos:R:3:forces:R:3 energy=-3.1741746930797436 pbc="F F F"
O        0.00000000       0.00000000       0.00000000       0.00000000       0.00000000       0.08043338
O        0.00000000       0.00000000       3.00181818       0.00000000       0.00000000      -0.08043338
2
Properties=species:S:1:pos:R:3:forces:R:3 energy=-3.16973754210435 pbc="F F F"
O        0.00000000       0.00000000       0.00000000       0.00000000       0.00000000       0.07123101
O        0.00000000       0.00000000       3.06060606       0.00000000       0.00000000      -0.07123101
2
Properties=species:S:1:pos:R:3:forces:R:3 energy=-3.1657388390233647 pbc="F F F"
O        0.00000000       0.00000000       0.00000000       0.00000000       0.00000000       0.06516413
O        0.00000000       0.00000000       3.11939394       0.00000000       0.00000000      -0.06516413
2
Properties=species:S:1:pos:R:3:forces:R:3 energy=-3.1620502660122445 pbc="F F F"
O        0.00000000       0.00000000       0.00000000       0.00000000       0.00000000       0.06040033
O        0.00000000       0.00000000       3.17818182       0.00000000       0.00000000      -0.06040033
2
Properties=species:S:1:pos:R:3:forces:R:3 energy=-3.1586363055106026 pbc="F F F"
O        0.00000000       0.00000000       0.00000000       0.00000000       0.00000000       0.05570424
O        0.00000000       0.00000000       3.23696970       0.00000000       0.00000000      -0.05570424
2
Properties=species:S:1:pos:R:3:forces:R:3 energy=-3.155509824278434 pbc="F F F"
O        0.00000000       0.00000000       0.00000000       0.00000000       0.00000000       0.05057526
O        0.00000000       0.00000000       3.29575758       0.00000000       0.00000000      -0.05057526
2
Properties=species:S:1:pos:R:3:forces:R:3 energy=-3.152694346635793 pbc="F F F"
O        0.00000000       0.00000000       0.00000000       0.00000000       0.00000000       0.04522435
O        0.00000000       0.00000000       3.35454545       0.00000000       0.00000000      -0.04522435
2
Properties=species:S:1:pos:R:3:forces:R:3 energy=-3.150182994990082 pbc="F F F"
O        0.00000000       0.00000000       0.00000000       0.00000000       0.00000000       0.04037461
O        0.00000000       0.00000000       3.41333333       0.00000000       0.00000000      -0.04037461
2
Properties=species:S:1:pos:R:3:forces:R:3 energy=-3.147919383483564 pbc="F F F"
O        0.00000000       0.00000000       0.00000000       0.00000000       0.00000000       0.03692999
O        0.00000000       0.00000000       3.47212121       0.00000000       0.00000000      -0.03692999
2
Properties=species:S:1:pos:R:3:forces:R:3 energy=-3.145798524942307 pbc="F F F"
O        0.00000000       0.00000000       0.00000000       0.00000000       0.00000000       0.03564525
O        0.00000000       0.00000000       3.53090909       0.00000000       0.00000000      -0.03564525
2
Properties=species:S:1:pos:R:3:forces:R:3 energy=-3.143679215575027 pbc="F F F"
O        0.00000000       0.00000000       0.00000000       0.00000000       0.00000000       0.03686437
O        0.00000000       0.00000000       3.58969697       0.00000000       0.00000000      -0.03686437
2
Properties=species:S:1:pos:R:3:forces:R:3 energy=-3.1414181268500125 pbc="F F F"
O        0.00000000       0.00000000       0.00000000       0.00000000       0.00000000       0.04041758
O        0.00000000       0.00000000       3.64848485       0.00000000       0.00000000      -0.04041758
2
Properties=species:S:1:pos:R:3:forces:R:3 energy=-3.1388938790399923 pbc="F F F"
O        0.00000000       0.00000000       0.00000000       0.00000000       0.00000000       0.04567460
O        0.00000000       0.00000000       3.70727273       0.00000000       0.00000000      -0.04567460
2
Properties=species:S:1:pos:R:3:forces:R:3 energy=-3.13603209101205 pbc="F F F"
O        0.00000000       0.00000000       0.00000000       0.00000000       0.00000000       0.05171428
O        0.00000000       0.00000000       3.76606061       0.00000000       0.00000000      -0.05171428
2
Properties=species:S:1:pos:R:3:forces:R:3 energy=-3.1328170795670576 pbc="F F F"
O        0.00000000       0.00000000       0.00000000       0.00000000       0.00000000       0.05755611
O        0.00000000       0.00000000       3.82484848       0.00000000       0.00000000      -0.05755611
2
Properties=species:S:1:pos:R:3:forces:R:3 energy=-3.1292859162002276 pbc="F F F"
O        0.00000000       0.00000000       0.00000000       0.00000000       0.00000000       0.06234510
O        0.00000000       0.00000000       3.88363636       0.00000000       0.00000000      -0.06234510
2
Properties=species:S:1:pos:R:3:forces:R:3 energy=-3.1255196368959335 pbc="F F F"
O        0.00000000       0.00000000       0.00000000       0.00000000       0.00000000       0.06546891
O        0.00000000       0.00000000       3.94242424       0.00000000       0.00000000      -0.06546891
2
Properties=species:S:1:pos:R:3:forces:R:3 energy=-3.1216280011576445 pbc="F F F"
O        0.00000000       0.00000000       0.00000000       0.00000000       0.00000000       0.06656750
O        0.00000000       0.00000000       4.00121212       0.00000000       0.00000000      -0.06656750
2
Properties=species:S:1:pos:R:3:forces:R:3 energy=-3.117735687489005 pbc="F F F"
O        0.00000000       0.00000000       0.00000000       0.00000000       0.00000000       0.06547620
O        0.00000000       0.00000000       4.06000000       0.00000000       0.00000000      -0.06547620
2
Properties=species:S:1:pos:R:3:forces:R:3 energy=-3.113973260216327 pbc="F F F"
O        0.00000000       0.00000000       0.00000000       0.00000000       0.00000000       0.06216385
O        0.00000000       0.00000000       4.11878788       0.00000000       0.00000000      -0.06216385
2
Properties=species:S:1:pos:R:3:forces:R:3 energy=-3.110469078700034 pbc="F F F"
O        0.00000000       0.00000000       0.00000000       0.00000000       0.00000000       0.05671844
O        0.00000000       0.00000000       4.17757576       0.00000000       0.00000000      -0.05671844
2
Properties=species:S:1:pos:R:3:forces:R:3 energy=-3.1073419231877653 pbc="F F F"
O        0.00000000       0.00000000       0.00000000       0.00000000       0.00000000       0.04939122
O        0.00000000       0.00000000       4.23636364       0.00000000       0.00000000      -0.04939122
2
Properties=species:S:1:pos:R:3:forces:R:3 energy=-3.104689089724529 pbc="F F F"
O        0.00000000       0.00000000       0.00000000       0.00000000       0.00000000       0.04065923
O        0.00000000       0.00000000       4.29515152       0.00000000       0.00000000      -0.04065923
2
Properties=species:S:1:pos:R:3:forces:R:3 energy=-3.1025747261542906 pbc="F F F"
O        0.00000000       0.00000000       0.00000000       0.00000000       0.00000000       0.03124970
O        0.00000000       0.00000000       4.35393939       0.00000000       0.00000000      -0.03124970
2
Properties=species:S:1:pos:R:3:forces:R:3 energy=-3.1010102789256426 pbc="F F F"
O        0.00000000       0.00000000       0.00000000       0.00000000       0.00000000       0.02208696
O        0.00000000       0.00000000       4.41272727       0.00000000       0.00000000      -0.02208696
2
Properties=species:S:1:pos:R:3:forces:R:3 energy=-3.0999530790134124 pbc="F F F"
O        0.00000000       0.00000000       0.00000000       0.00000000       0.00000000       0.01416234
O        0.00000000       0.00000000       4.47151515       0.00000000       0.00000000      -0.01416234
2
Properties=species:S:1:pos:R:3:forces:R:3 energy=-3.0993034884192876 pbc="F F F"
O        0.00000000       0.00000000       0.00000000       0.00000000       0.00000000       0.00834361
O        0.00000000       0.00000000       4.53030303       0.00000000       0.00000000      -0.00834361
2
Properties=species:S:1:pos:R:3:forces:R:3 energy=-3.098919442121231 pbc="F F F"
O        0.00000000       0.00000000       0.00000000       0.00000000       0.00000000       0.00519410
O        0.00000000       0.00000000       4.58909091       0.00000000       0.00000000      -0.00519410
2
Properties=species:S:1:pos:R:3:forces:R:3 energy=-3.098638389215387 pbc="F F F"
O        0.00000000       0.00000000       0.00000000       0.00000000       0.00000000       0.00481589
O        0.00000000       0.00000000       4.64787879       0.00000000       0.00000000      -0.00481589
2
Properties=species:S:1:pos:R:3:forces:R:3 energy=-3.0983073375178267 pbc="F F F"
O        0.00000000       0.00000000       0.00000000       0.00000000       0.00000000       0.00678006
O        0.00000000       0.00000000       4.70666667       0.00000000       0.00000000      -0.00678006
2
Properties=species:S:1:pos:R:3:forces:R:3 energy=-3.097813130150246 pbc="F F F"
O        0.00000000       0.00000000       0.00000000       0.00000000       0.00000000       0.01017573
O        0.00000000       0.00000000       4.76545455       0.00000000       0.00000000      -0.01017573
2
Properties=species:S:1:pos:R:3:forces:R:3 energy=-3.097106767996816 pbc="F F F"
O        0.00000000       0.00000000       0.00000000       0.00000000       0.00000000       0.01377072
O        0.00000000       0.00000000       4.82424242       0.00000000       0.00000000      -0.01377072
2
Properties=species:S:1:pos:R:3:forces:R:3 energy=-3.096215091967076 pbc="F F F"
O        0.00000000       0.00000000       0.00000000       0.00000000       0.00000000       0.01629877
O        0.00000000       0.00000000       4.88303030       0.00000000       0.00000000      -0.01629877
2
Properties=species:S:1:pos:R:3:forces:R:3 energy=-3.0952312439263996 pbc="F F F"
O        0.00000000       0.00000000       0.00000000       0.00000000       0.00000000       0.01675994
O        0.00000000       0.00000000       4.94181818       0.00000000       0.00000000      -0.01675994
2
Properties=species:S:1:pos:R:3:forces:R:3 energy=-3.094293687048967 pbc="F F F"
O        0.00000000       0.00000000       0.00000000       0.00000000       0.00000000       0.01471196
O        0.00000000       0.00000000       5.00060606       0.00000000       0.00000000      -0.01471196
2
Properties=species:S:1:pos:R:3:forces:R:3 energy=-3.093546390311033 pbc="F F F"
O        0.00000000       0.00000000       0.00000000       0.00000000       0.00000000       0.01038767
O        0.00000000       0.00000000       5.05939394       0.00000000       0.00000000      -0.01038767
2
Properties=species:S:1:pos:R:3:forces:R:3 energy=-3.0931009159770717 pbc="F F F"
O        0.00000000       0.00000000       0.00000000       0.00000000       0.00000000       0.00463203
O        0.00000000       0.00000000       5.11818182       0.00000000       0.00000000      -0.00463203
2
Properties=species:S:1:pos:R:3:forces:R:3 energy=-3.093007333919048 pbc="F F F"
O        0.00000000       0.00000000       0.00000000       0.00000000       0.00000000      -0.00139337
O        0.00000000       0.00000000       5.17696970       0.00000000       0.00000000       0.00139337
2
Properties=species:S:1:pos:R:3:forces:R:3 energy=-3.093248020357496 pbc="F F F"
O        0.00000000       0.00000000       0.00000000       0.00000000       0.00000000      -0.00658145
O        0.00000000       0.00000000       5.23575758       0.00000000       0.00000000       0.00658145
2
Properties=species:S:1:pos:R:3:forces:R:3 energy=-3.0937479098604186 pbc="F F F"
O        0.00000000       0.00000000       0.00000000       0.00000000       0.00000000      -0.01008359
O        0.00000000       0.00000000       5.29454545       0.00000000       0.00000000       0.01008359
2
Properties=species:S:1:pos:R:3:forces:R:3 energy=-3.094384745807775 pbc="F F F"
O        0.00000000       0.00000000       0.00000000       0.00000000       0.00000000      -0.01106437
O        0.00000000       0.00000000       5.35333333       0.00000000       0.00000000       0.01106437
2
Properties=species:S:1:pos:R:3:forces:R:3 energy=-3.094975488874317 pbc="F F F"
O        0.00000000       0.00000000       0.00000000       0.00000000       0.00000000      -0.00832481
O        0.00000000       0.00000000       5.41212121       0.00000000       0.00000000       0.00832481
2
Properties=species:S:1:pos:R:3:forces:R:3 energy=-3.0952899064431207 pbc="F F F"
O        0.00000000       0.00000000       0.00000000       0.00000000       0.00000000      -0.00202264
O        0.00000000       0.00000000       5.47090909       0.00000000       0.00000000       0.00202264
2
Properties=species:S:1:pos:R:3:forces:R:3 energy=-3.095230816333679 pbc="F F F"
O        0.00000000       0.00000000       0.00000000       0.00000000       0.00000000       0.00340979
O        0.00000000       0.00000000       5.52969697       0.00000000       0.00000000      -0.00340979
2
Properties=species:S:1:pos:R:3:forces:R:3 energy=-3.094983334877277 pbc="F F F"
O        0.00000000       0.00000000       0.00000000       0.00000000       0.00000000       0.00425221
O        0.00000000       0.00000000       5.58848485       0.00000000       0.00000000      -0.00425221
2
Properties=species:S:1:pos:R:3:forces:R:3 energy=-3.094790764170349 pbc="F F F"
O        0.00000000       0.00000000       0.00000000       0.00000000       0.00000000       0.00208744
O        0.00000000       0.00000000       5.64727273       0.00000000       0.00000000      -0.00208744
2
Properties=species:S:1:pos:R:3:forces:R:3 energy=-3.094719985544539 pbc="F F F"
O        0.00000000       0.00000000       0.00000000       0.00000000       0.00000000       0.00081086
O        0.00000000       0.00000000       5.70606061       0.00000000       0.00000000      -0.00081086
2
Properties=species:S:1:pos:R:3:forces:R:3 energy=-3.094628796543096 pbc="F F F"
O        0.00000000       0.00000000       0.00000000       0.00000000       0.00000000       0.00265903
O        0.00000000       0.00000000       5.76484848       0.00000000       0.00000000      -0.00265903
2
Properties=species:S:1:pos:R:3:forces:R:3 energy=-3.0944141043647373 pbc="F F F"
O        0.00000000       0.00000000       0.00000000       0.00000000       0.00000000       0.00424401
O        0.00000000       0.00000000       5.82363636       0.00000000       0.00000000      -0.00424401
2
Properties=species:S:1:pos:R:3:forces:R:3 energy=-3.094186684405255 pbc="F F F"
O        0.00000000       0.00000000       0.00000000       0.00000000       0.00000000       0.00314120
O        0.00000000       0.00000000       5.88242424       0.00000000       0.00000000      -0.00314120
2
Properties=species:S:1:pos:R:3:forces:R:3 energy=-3.0940623264979235 pbc="F F F"
O        0.00000000       0.00000000       0.00000000       0.00000000       0.00000000       0.00112610
O        0.00000000       0.00000000       5.94121212       0.00000000       0.00000000      -0.00112610
2
Properties=species:S:1:pos:R:3:forces:R:3 energy=-3.094031418688552 pbc="F F F"
O        0.00000000       0.00000000       0.00000000       0.00000000       0.00000000       0.00021801
O        0.00000000       0.00000000       6.00000000       0.00000000       0.00000000      -0.00021801
