2
Properties=species:S:1:pos:R:3:forces:R:3 energy=10856.494247944902 pbc="F F F"
Pr       0.00000000       0.00000000       0.00000000       0.00000000       0.00000000 -185313.84375000
Pr       0.00000000       0.00000000       0.18000000       0.00000000       0.00000000  185313.84375000
2
Properties=species:S:1:pos:R:3:forces:R:3 energy=4319.982529194902 pbc="F F F"
Pr       0.00000000       0.00000000       0.00000000       0.00000000       0.00000000  -62685.15234375
Pr       0.00000000       0.00000000       0.23878788       0.00000000       0.00000000   62685.15234375
2
Properties=species:S:1:pos:R:3:forces:R:3 energy=1935.676132710527 pbc="F F F"
Pr       0.00000000       0.00000000       0.00000000       0.00000000       0.00000000  -24974.51953125
Pr       0.00000000       0.00000000       0.29757576       0.00000000       0.00000000   24974.51953125
2
Properties=species:S:1:pos:R:3:forces:R:3 energy=940.0923924888233 pbc="F F F"
Pr       0.00000000       0.00000000       0.00000000       0.00000000       0.00000000  -11011.80175781
Pr       0.00000000       0.00000000       0.35636364       0.00000000       0.00000000   11011.80175781
2
Properties=species:S:1:pos:R:3:forces:R:3 energy=486.56199698101085 pbc="F F F"
Pr       0.00000000       0.00000000       0.00000000       0.00000000       0.00000000   -5212.85107422
Pr       0.00000000       0.00000000       0.41515152       0.00000000       0.00000000    5212.85107422
2
Properties=species:S:1:pos:R:3:forces:R:3 energy=266.29405264507335 pbc="F F F"
Pr       0.00000000       0.00000000       0.00000000       0.00000000       0.00000000   -2610.41186523
Pr       0.00000000       0.00000000       0.47393939       0.00000000       0.00000000    2610.41186523
2
Properties=species:S:1:pos:R:3:forces:R:3 energy=153.5448308686581 pbc="F F F"
Pr       0.00000000       0.00000000       0.00000000       0.00000000       0.00000000   -1371.69177246
Pr       0.00000000       0.00000000       0.53272727       0.00000000       0.00000000    1371.69177246
2
Properties=species:S:1:pos:R:3:forces:R:3 energy=93.1316762919499 pbc="F F F"
Pr       0.00000000       0.00000000       0.00000000       0.00000000       0.00000000    -752.11523438
Pr       0.00000000       0.00000000       0.59151515       0.00000000       0.00000000     752.11523438
2
Properties=species:S:1:pos:R:3:forces:R:3 energy=59.42641129746904 pbc="F F F"
Pr       0.00000000       0.00000000       0.00000000       0.00000000       0.00000000    -428.15301514
Pr       0.00000000       0.00000000       0.65030303       0.00000000       0.00000000     428.15301514
2
Properties=species:S:1:pos:R:3:forces:R:3 energy=39.94569848287177 pbc="F F F"
Pr       0.00000000       0.00000000       0.00000000       0.00000000       0.00000000    -251.78376770
Pr       0.00000000       0.00000000       0.70909091       0.00000000       0.00000000     251.78376770
2
Properties=species:S:1:pos:R:3:forces:R:3 energy=28.338089814418638 pbc="F F F"
Pr       0.00000000       0.00000000       0.00000000       0.00000000       0.00000000    -152.28324890
Pr       0.00000000       0.00000000       0.76787879       0.00000000       0.00000000     152.28324890
2
Properties=species:S:1:pos:R:3:forces:R:3 energy=21.23324685216824 pbc="F F F"
Pr       0.00000000       0.00000000       0.00000000       0.00000000       0.00000000     -94.52906036
Pr       0.00000000       0.00000000       0.82666667       0.00000000       0.00000000      94.52906036
2
Properties=species:S:1:pos:R:3:forces:R:3 energy=16.764931981082295 pbc="F F F"
Pr       0.00000000       0.00000000       0.00000000       0.00000000       0.00000000     -60.45424271
Pr       0.00000000       0.00000000       0.88545455       0.00000000       0.00000000      60.45424271
2
Properties=species:S:1:pos:R:3:forces:R:3 energy=13.85213155967027 pbc="F F F"
Pr       0.00000000       0.00000000       0.00000000       0.00000000       0.00000000     -40.45643616
Pr       0.00000000       0.00000000       0.94424242       0.00000000       0.00000000      40.45643616
2
Properties=species:S:1:pos:R:3:forces:R:3 energy=11.837449284075133 pbc="F F F"
Pr       0.00000000       0.00000000       0.00000000       0.00000000       0.00000000     -29.24473953
Pr       0.00000000       0.00000000       1.00303030       0.00000000       0.00000000      29.24473953
2
Properties=species:S:1:pos:R:3:forces:R:3 energy=10.302948879908799 pbc="F F F"
Pr       0.00000000       0.00000000       0.00000000       0.00000000       0.00000000     -23.71282578
Pr       0.00000000       0.00000000       1.06181818       0.00000000       0.00000000      23.71282578
2
Properties=species:S:1:pos:R:3:forces:R:3 energy=8.979842060148902 pbc="F F F"
Pr       0.00000000       0.00000000       0.00000000       0.00000000       0.00000000     -21.73731613
Pr       0.00000000       0.00000000       1.12060606       0.00000000       0.00000000      21.73731613
2
Properties=species:S:1:pos:R:3:forces:R:3 energy=7.713636484574446 pbc="F F F"
Pr       0.00000000       0.00000000       0.00000000       0.00000000       0.00000000     -21.48279572
Pr       0.00000000       0.00000000       1.17939394       0.00000000       0.00000000      21.48279572
2
Properties=species:S:1:pos:R:3:forces:R:3 energy=6.447319683901049 pbc="F F F"
Pr       0.00000000       0.00000000       0.00000000       0.00000000       0.00000000     -21.63025665
Pr       0.00000000       0.00000000       1.23818182       0.00000000       0.00000000      21.63025665
2
Properties=species:S:1:pos:R:3:forces:R:3 energy=5.161843997034863 pbc="F F F"
Pr       0.00000000       0.00000000       0.00000000       0.00000000       0.00000000     -22.19712257
Pr       0.00000000       0.00000000       1.29696970       0.00000000       0.00000000      22.19712257
2
Properties=species:S:1:pos:R:3:forces:R:3 energy=3.8347189732572335 pbc="F F F"
Pr       0.00000000       0.00000000       0.00000000       0.00000000       0.00000000     -22.85914993
Pr       0.00000000       0.00000000       1.35575758       0.00000000       0.00000000      22.85914993
2
Properties=species:S:1:pos:R:3:forces:R:3 energy=2.4986910796260653 pbc="F F F"
Pr       0.00000000       0.00000000       0.00000000       0.00000000       0.00000000     -22.30477715
Pr       0.00000000       0.00000000       1.41454545       0.00000000       0.00000000      22.30477715
2
Properties=species:S:1:pos:R:3:forces:R:3 energy=1.2479915588755817 pbc="F F F"
Pr       0.00000000       0.00000000       0.00000000       0.00000000       0.00000000     -19.96667099
Pr       0.00000000       0.00000000       1.47333333       0.00000000       0.00000000      19.96667099
2
Properties=species:S:1:pos:R:3:forces:R:3 energy=0.17329921691139433 pbc="F F F"
Pr       0.00000000       0.00000000       0.00000000       0.00000000       0.00000000     -16.53208542
Pr       0.00000000       0.00000000       1.53212121       0.00000000       0.00000000      16.53208542
2
Properties=species:S:1:pos:R:3:forces:R:3 energy=-0.7057245427289804 pbc="F F F"
Pr       0.00000000       0.00000000       0.00000000       0.00000000       0.00000000     -13.58582306
Pr       0.00000000       0.00000000       1.59090909       0.00000000       0.00000000      13.58582306
2
Properties=species:S:1:pos:R:3:forces:R:3 energy=-1.4549846748080968 pbc="F F F"
Pr       0.00000000       0.00000000       0.00000000       0.00000000       0.00000000     -12.14736176
Pr       0.00000000       0.00000000       1.64969697       0.00000000       0.00000000      12.14736176
2
Properties=species:S:1:pos:R:3:forces:R:3 energy=-2.150350298408457 pbc="F F F"
Pr       0.00000000       0.00000000       0.00000000       0.00000000       0.00000000     -11.52831745
Pr       0.00000000       0.00000000       1.70848485       0.00000000       0.00000000      11.52831745
2
Properties=species:S:1:pos:R:3:forces:R:3 energy=-2.804515255168817 pbc="F F F"
Pr       0.00000000       0.00000000       0.00000000       0.00000000       0.00000000     -10.66990185
Pr       0.00000000       0.00000000       1.76727273       0.00000000       0.00000000      10.66990185
2
Properties=species:S:1:pos:R:3:forces:R:3 energy=-3.4038493910046155 pbc="F F F"
Pr       0.00000000       0.00000000       0.00000000       0.00000000       0.00000000      -9.75250530
Pr       0.00000000       0.00000000       1.82606061       0.00000000       0.00000000       9.75250530
2
Properties=species:S:1:pos:R:3:forces:R:3 energy=-3.9555877030962097 pbc="F F F"
Pr       0.00000000       0.00000000       0.00000000       0.00000000       0.00000000      -9.04199886
Pr       0.00000000       0.00000000       1.88484848       0.00000000       0.00000000       9.04199886
2
Properties=species:S:1:pos:R:3:forces:R:3 energy=-4.467409750574961 pbc="F F F"
Pr       0.00000000       0.00000000       0.00000000       0.00000000       0.00000000      -8.35772991
Pr       0.00000000       0.00000000       1.94363636       0.00000000       0.00000000       8.35772991
2
Properties=species:S:1:pos:R:3:forces:R:3 energy=-4.935699335145424 pbc="F F F"
Pr       0.00000000       0.00000000       0.00000000       0.00000000       0.00000000      -7.54716730
Pr       0.00000000       0.00000000       2.00242424       0.00000000       0.00000000       7.54716730
2
Properties=species:S:1:pos:R:3:forces:R:3 energy=-5.351619279767966 pbc="F F F"
Pr       0.00000000       0.00000000       0.00000000       0.00000000       0.00000000      -6.57791281
Pr       0.00000000       0.00000000       2.06121212       0.00000000       0.00000000       6.57791281
2
Properties=species:S:1:pos:R:3:forces:R:3 energy=-5.706732912601978 pbc="F F F"
Pr       0.00000000       0.00000000       0.00000000       0.00000000       0.00000000      -5.48948431
Pr       0.00000000       0.00000000       2.12000000       0.00000000       0.00000000       5.48948431
2
Properties=species:S:1:pos:R:3:forces:R:3 energy=-5.9964158115302455 pbc="F F F"
Pr       0.00000000       0.00000000       0.00000000       0.00000000       0.00000000      -4.36984634
Pr       0.00000000       0.00000000       2.17878788       0.00000000       0.00000000       4.36984634
2
Properties=species:S:1:pos:R:3:forces:R:3 energy=-6.222195694779399 pbc="F F F"
Pr       0.00000000       0.00000000       0.00000000       0.00000000       0.00000000      -3.33502173
Pr       0.00000000       0.00000000       2.23757576       0.00000000       0.00000000       3.33502173
2
Properties=species:S:1:pos:R:3:forces:R:3 energy=-6.392119973669873 pbc="F F F"
Pr       0.00000000       0.00000000       0.00000000       0.00000000       0.00000000      -2.48060536
Pr       0.00000000       0.00000000       2.29636364       0.00000000       0.00000000       2.48060536
2
Properties=species:S:1:pos:R:3:forces:R:3 energy=-6.517958187022592 pbc="F F F"
Pr       0.00000000       0.00000000       0.00000000       0.00000000       0.00000000      -1.83316565
Pr       0.00000000       0.00000000       2.35515152       0.00000000       0.00000000       1.83316565
2
Properties=species:S:1:pos:R:3:forces:R:3 energy=-6.610963421002282 pbc="F F F"
Pr       0.00000000       0.00000000       0.00000000       0.00000000       0.00000000      -1.35391712
Pr       0.00000000       0.00000000       2.41393939       0.00000000       0.00000000       1.35391712
2
Properties=species:S:1:pos:R:3:forces:R:3 energy=-6.679273972757263 pbc="F F F"
Pr       0.00000000       0.00000000       0.00000000       0.00000000       0.00000000      -0.98387140
Pr       0.00000000       0.00000000       2.47272727       0.00000000       0.00000000       0.98387140
2
Properties=species:S:1:pos:R:3:forces:R:3 energy=-6.7279166756082756 pbc="F F F"
Pr       0.00000000       0.00000000       0.00000000       0.00000000       0.00000000      -0.67960197
Pr       0.00000000       0.00000000       2.53151515       0.00000000       0.00000000       0.67960197
2
Properties=species:S:1:pos:R:3:forces:R:3 energy=-6.760051520059113 pbc="F F F"
Pr       0.00000000       0.00000000       0.00000000       0.00000000       0.00000000      -0.42033660
Pr       0.00000000       0.00000000       2.59030303       0.00000000       0.00000000       0.42033660
2
Properties=species:S:1:pos:R:3:forces:R:3 energy=-6.778085406014018 pbc="F F F"
Pr       0.00000000       0.00000000       0.00000000       0.00000000       0.00000000      -0.19933513
Pr       0.00000000       0.00000000       2.64909091       0.00000000       0.00000000       0.19933513
2
Properties=species:S:1:pos:R:3:forces:R:3 energy=-6.784179185403597 pbc="F F F"
Pr       0.00000000       0.00000000       0.00000000       0.00000000       0.00000000      -0.01344876
Pr       0.00000000       0.00000000       2.70787879       0.00000000       0.00000000       0.01344876
2
Properties=species:S:1:pos:R:3:forces:R:3 energy=-6.780232664821018 pbc="F F F"
Pr       0.00000000       0.00000000       0.00000000       0.00000000       0.00000000       0.14374238
Pr       0.00000000       0.00000000       2.76666667       0.00000000       0.00000000      -0.14374238
2
Properties=species:S:1:pos:R:3:forces:R:3 energy=-6.767617817467889 pbc="F F F"
Pr       0.00000000       0.00000000       0.00000000       0.00000000       0.00000000       0.28373435
Pr       0.00000000       0.00000000       2.82545455       0.00000000       0.00000000      -0.28373435
2
Properties=species:S:1:pos:R:3:forces:R:3 energy=-6.746931502737973 pbc="F F F"
Pr       0.00000000       0.00000000       0.00000000       0.00000000       0.00000000       0.42063794
Pr       0.00000000       0.00000000       2.88424242       0.00000000       0.00000000      -0.42063794
2
Properties=species:S:1:pos:R:3:forces:R:3 energy=-6.717971502318187 pbc="F F F"
Pr       0.00000000       0.00000000       0.00000000       0.00000000       0.00000000       0.56701565
Pr       0.00000000       0.00000000       2.94303030       0.00000000       0.00000000      -0.56701565
2
Properties=species:S:1:pos:R:3:forces:R:3 energy=-6.679926786214216 pbc="F F F"
Pr       0.00000000       0.00000000       0.00000000       0.00000000       0.00000000       0.73034722
Pr       0.00000000       0.00000000       3.00181818       0.00000000       0.00000000      -0.73034722
2
Properties=species:S:1:pos:R:3:forces:R:3 energy=-6.631761320649515 pbc="F F F"
Pr       0.00000000       0.00000000       0.00000000       0.00000000       0.00000000       0.91065687
Pr       0.00000000       0.00000000       3.06060606       0.00000000       0.00000000      -0.91065687
2
Properties=species:S:1:pos:R:3:forces:R:3 energy=-6.572687778103501 pbc="F F F"
Pr       0.00000000       0.00000000       0.00000000       0.00000000       0.00000000       1.09924805
Pr       0.00000000       0.00000000       3.11939394       0.00000000       0.00000000      -1.09924805
2
Properties=species:S:1:pos:R:3:forces:R:3 energy=-6.502677778413414 pbc="F F F"
Pr       0.00000000       0.00000000       0.00000000       0.00000000       0.00000000       1.27944195
Pr       0.00000000       0.00000000       3.17818182       0.00000000       0.00000000      -1.27944195
2
Properties=species:S:1:pos:R:3:forces:R:3 energy=-6.422827850957848 pbc="F F F"
Pr       0.00000000       0.00000000       0.00000000       0.00000000       0.00000000       1.43065929
Pr       0.00000000       0.00000000       3.23696970       0.00000000       0.00000000      -1.43065929
2
Properties=species:S:1:pos:R:3:forces:R:3 energy=-6.335384791053348 pbc="F F F"
Pr       0.00000000       0.00000000       0.00000000       0.00000000       0.00000000       1.53538692
Pr       0.00000000       0.00000000       3.29575758       0.00000000       0.00000000      -1.53538692
2
Properties=species:S:1:pos:R:3:forces:R:3 energy=-6.243379276290679 pbc="F F F"
Pr       0.00000000       0.00000000       0.00000000       0.00000000       0.00000000       1.58559465
Pr       0.00000000       0.00000000       3.35454545       0.00000000       0.00000000      -1.58559465
2
Properties=species:S:1:pos:R:3:forces:R:3 energy=-6.149961531003145 pbc="F F F"
Pr       0.00000000       0.00000000       0.00000000       0.00000000       0.00000000       1.58487844
Pr       0.00000000       0.00000000       3.41333333       0.00000000       0.00000000      -1.58487844
2
Properties=species:S:1:pos:R:3:forces:R:3 energy=-6.05779812726145 pbc="F F F"
Pr       0.00000000       0.00000000       0.00000000       0.00000000       0.00000000       1.54535449
Pr       0.00000000       0.00000000       3.47212121       0.00000000       0.00000000      -1.54535449
2
Properties=species:S:1:pos:R:3:forces:R:3 energy=-5.968731949294759 pbc="F F F"
Pr       0.00000000       0.00000000       0.00000000       0.00000000       0.00000000       1.48197794
Pr       0.00000000       0.00000000       3.53090909       0.00000000       0.00000000      -1.48197794
2
Properties=species:S:1:pos:R:3:forces:R:3 energy=-5.883759406677404 pbc="F F F"
Pr       0.00000000       0.00000000       0.00000000       0.00000000       0.00000000       1.40795243
Pr       0.00000000       0.00000000       3.58969697       0.00000000       0.00000000      -1.40795243
2
Properties=species:S:1:pos:R:3:forces:R:3 energy=-5.803205923074391 pbc="F F F"
Pr       0.00000000       0.00000000       0.00000000       0.00000000       0.00000000       1.33294404
Pr       0.00000000       0.00000000       3.64848485       0.00000000       0.00000000      -1.33294404
2
Properties=species:S:1:pos:R:3:forces:R:3 energy=-5.726932318031889 pbc="F F F"
Pr       0.00000000       0.00000000       0.00000000       0.00000000       0.00000000       1.26318371
Pr       0.00000000       0.00000000       3.70727273       0.00000000       0.00000000      -1.26318371
2
Properties=species:S:1:pos:R:3:forces:R:3 energy=-5.654520925524386 pbc="F F F"
Pr       0.00000000       0.00000000       0.00000000       0.00000000       0.00000000       1.20173597
Pr       0.00000000       0.00000000       3.76606061       0.00000000       0.00000000      -1.20173597
2
Properties=species:S:1:pos:R:3:forces:R:3 energy=-5.585479140064797 pbc="F F F"
Pr       0.00000000       0.00000000       0.00000000       0.00000000       0.00000000       1.14827371
Pr       0.00000000       0.00000000       3.82484848       0.00000000       0.00000000      -1.14827371
2
Properties=species:S:1:pos:R:3:forces:R:3 energy=-5.519423889328256 pbc="F F F"
Pr       0.00000000       0.00000000       0.00000000       0.00000000       0.00000000       1.09919441
Pr       0.00000000       0.00000000       3.88363636       0.00000000       0.00000000      -1.09919441
2
Properties=species:S:1:pos:R:3:forces:R:3 energy=-5.456259747837885 pbc="F F F"
Pr       0.00000000       0.00000000       0.00000000       0.00000000       0.00000000       1.04909158
Pr       0.00000000       0.00000000       3.94242424       0.00000000       0.00000000      -1.04909158
2
Properties=species:S:1:pos:R:3:forces:R:3 energy=-5.396194031027114 pbc="F F F"
Pr       0.00000000       0.00000000       0.00000000       0.00000000       0.00000000       0.99317247
Pr       0.00000000       0.00000000       4.00121212       0.00000000       0.00000000      -0.99317247
2
Properties=species:S:1:pos:R:3:forces:R:3 energy=-5.339646183508328 pbc="F F F"
Pr       0.00000000       0.00000000       0.00000000       0.00000000       0.00000000       0.92926782
Pr       0.00000000       0.00000000       4.06000000       0.00000000       0.00000000      -0.92926782
2
Properties=species:S:1:pos:R:3:forces:R:3 energy=-5.287068665699428 pbc="F F F"
Pr       0.00000000       0.00000000       0.00000000       0.00000000       0.00000000       0.85859782
Pr       0.00000000       0.00000000       4.11878788       0.00000000       0.00000000      -0.85859782
2
Properties=species:S:1:pos:R:3:forces:R:3 energy=-5.238749091745748 pbc="F F F"
Pr       0.00000000       0.00000000       0.00000000       0.00000000       0.00000000       0.78525823
Pr       0.00000000       0.00000000       4.17757576       0.00000000       0.00000000      -0.78525823
2
Properties=species:S:1:pos:R:3:forces:R:3 energy=-5.194679938934275 pbc="F F F"
Pr       0.00000000       0.00000000       0.00000000       0.00000000       0.00000000       0.71501046
Pr       0.00000000       0.00000000       4.23636364       0.00000000       0.00000000      -0.71501046
2
Properties=species:S:1:pos:R:3:forces:R:3 energy=-5.154502998500616 pbc="F F F"
Pr       0.00000000       0.00000000       0.00000000       0.00000000       0.00000000       0.65375274
Pr       0.00000000       0.00000000       4.29515152       0.00000000       0.00000000      -0.65375274
2
Properties=species:S:1:pos:R:3:forces:R:3 energy=-5.11754705843579 pbc="F F F"
Pr       0.00000000       0.00000000       0.00000000       0.00000000       0.00000000       0.60611969
Pr       0.00000000       0.00000000       4.35393939       0.00000000       0.00000000      -0.60611969
2
Properties=species:S:1:pos:R:3:forces:R:3 energy=-5.08292460005903 pbc="F F F"
Pr       0.00000000       0.00000000       0.00000000       0.00000000       0.00000000       0.57445019
Pr       0.00000000       0.00000000       4.41272727       0.00000000       0.00000000      -0.57445019
2
Properties=species:S:1:pos:R:3:forces:R:3 energy=-5.0496974632523 pbc="F F F"
Pr       0.00000000       0.00000000       0.00000000       0.00000000       0.00000000       0.55837792
Pr       0.00000000       0.00000000       4.47151515       0.00000000       0.00000000      -0.55837792
2
Properties=species:S:1:pos:R:3:forces:R:3 energy=-5.017022834658435 pbc="F F F"
Pr       0.00000000       0.00000000       0.00000000       0.00000000       0.00000000       0.55495119
Pr       0.00000000       0.00000000       4.53030303       0.00000000       0.00000000      -0.55495119
2
Properties=species:S:1:pos:R:3:forces:R:3 energy=-4.984295733292425 pbc="F F F"
Pr       0.00000000       0.00000000       0.00000000       0.00000000       0.00000000       0.55928564
Pr       0.00000000       0.00000000       4.58909091       0.00000000       0.00000000      -0.55928564
2
Properties=species:S:1:pos:R:3:forces:R:3 energy=-4.951226448230374 pbc="F F F"
Pr       0.00000000       0.00000000       0.00000000       0.00000000       0.00000000       0.56563973
Pr       0.00000000       0.00000000       4.64787879       0.00000000       0.00000000      -0.56563973
2
Properties=species:S:1:pos:R:3:forces:R:3 energy=-4.917854354215793 pbc="F F F"
Pr       0.00000000       0.00000000       0.00000000       0.00000000       0.00000000       0.56875539
Pr       0.00000000       0.00000000       4.70666667       0.00000000       0.00000000      -0.56875539
2
Properties=species:S:1:pos:R:3:forces:R:3 energy=-4.884485986185483 pbc="F F F"
Pr       0.00000000       0.00000000       0.00000000       0.00000000       0.00000000       0.56523818
Pr       0.00000000       0.00000000       4.76545455       0.00000000       0.00000000      -0.56523818
2
Properties=species:S:1:pos:R:3:forces:R:3 energy=-4.85153822320093 pbc="F F F"
Pr       0.00000000       0.00000000       0.00000000       0.00000000       0.00000000       0.55457509
Pr       0.00000000       0.00000000       4.82424242       0.00000000       0.00000000      -0.55457509
2
Properties=species:S:1:pos:R:3:forces:R:3 energy=-4.819372361788532 pbc="F F F"
Pr       0.00000000       0.00000000       0.00000000       0.00000000       0.00000000       0.53943205
Pr       0.00000000       0.00000000       4.88303030       0.00000000       0.00000000      -0.53943205
2
Properties=species:S:1:pos:R:3:forces:R:3 energy=-4.788103870584769 pbc="F F F"
Pr       0.00000000       0.00000000       0.00000000       0.00000000       0.00000000       0.52483606
Pr       0.00000000       0.00000000       4.94181818       0.00000000       0.00000000      -0.52483606
2
Properties=species:S:1:pos:R:3:forces:R:3 energy=-4.757541819345825 pbc="F F F"
Pr       0.00000000       0.00000000       0.00000000       0.00000000       0.00000000       0.51625055
Pr       0.00000000       0.00000000       5.00060606       0.00000000       0.00000000      -0.51625055
2
Properties=species:S:1:pos:R:3:forces:R:3 energy=-4.727219122429165 pbc="F F F"
Pr       0.00000000       0.00000000       0.00000000       0.00000000       0.00000000       0.51693988
Pr       0.00000000       0.00000000       5.05939394       0.00000000       0.00000000      -0.51693988
2
Properties=species:S:1:pos:R:3:forces:R:3 energy=-4.696605819715628 pbc="F F F"
Pr       0.00000000       0.00000000       0.00000000       0.00000000       0.00000000       0.52539659
Pr       0.00000000       0.00000000       5.11818182       0.00000000       0.00000000      -0.52539659
2
Properties=species:S:1:pos:R:3:forces:R:3 energy=-4.665444082391535 pbc="F F F"
Pr       0.00000000       0.00000000       0.00000000       0.00000000       0.00000000       0.53382885
Pr       0.00000000       0.00000000       5.17696970       0.00000000       0.00000000      -0.53382885
2
Properties=species:S:1:pos:R:3:forces:R:3 energy=-4.634088459267749 pbc="F F F"
Pr       0.00000000       0.00000000       0.00000000       0.00000000       0.00000000       0.52985483
Pr       0.00000000       0.00000000       5.23575758       0.00000000       0.00000000      -0.52985483
2
Properties=species:S:1:pos:R:3:forces:R:3 energy=-4.603562721771805 pbc="F F F"
Pr       0.00000000       0.00000000       0.00000000       0.00000000       0.00000000       0.50552046
Pr       0.00000000       0.00000000       5.29454545       0.00000000       0.00000000      -0.50552046
2
Properties=species:S:1:pos:R:3:forces:R:3 energy=-4.5747852839980165 pbc="F F F"
Pr       0.00000000       0.00000000       0.00000000       0.00000000       0.00000000       0.47533959
Pr       0.00000000       0.00000000       5.35333333       0.00000000       0.00000000      -0.47533959
2
Properties=species:S:1:pos:R:3:forces:R:3 energy=-4.54705280352359 pbc="F F F"
Pr       0.00000000       0.00000000       0.00000000       0.00000000       0.00000000       0.47541296
Pr       0.00000000       0.00000000       5.41212121       0.00000000       0.00000000      -0.47541296
2
Properties=species:S:1:pos:R:3:forces:R:3 energy=-4.518264746367564 pbc="F F F"
Pr       0.00000000       0.00000000       0.00000000       0.00000000       0.00000000       0.50444925
Pr       0.00000000       0.00000000       5.47090909       0.00000000       0.00000000      -0.50444925
2
Properties=species:S:1:pos:R:3:forces:R:3 energy=-4.488382739203258 pbc="F F F"
Pr       0.00000000       0.00000000       0.00000000       0.00000000       0.00000000       0.50276351
Pr       0.00000000       0.00000000       5.52969697       0.00000000       0.00000000      -0.50276351
2
Properties=species:S:1:pos:R:3:forces:R:3 energy=-4.460149411709659 pbc="F F F"
Pr       0.00000000       0.00000000       0.00000000       0.00000000       0.00000000       0.45284778
Pr       0.00000000       0.00000000       5.58848485       0.00000000       0.00000000      -0.45284778
2
Properties=species:S:1:pos:R:3:forces:R:3 energy=-4.4350940457387384 pbc="F F F"
Pr       0.00000000       0.00000000       0.00000000       0.00000000       0.00000000       0.40521199
Pr       0.00000000       0.00000000       5.64727273       0.00000000       0.00000000      -0.40521199
2
Properties=species:S:1:pos:R:3:forces:R:3 energy=-4.411460420087786 pbc="F F F"
Pr       0.00000000       0.00000000       0.00000000       0.00000000       0.00000000       0.40853292
Pr       0.00000000       0.00000000       5.70606061       0.00000000       0.00000000      -0.40853292
2
Properties=species:S:1:pos:R:3:forces:R:3 energy=-4.386499825358543 pbc="F F F"
Pr       0.00000000       0.00000000       0.00000000       0.00000000       0.00000000       0.43549269
Pr       0.00000000       0.00000000       5.76484848       0.00000000       0.00000000      -0.43549269
2
Properties=species:S:1:pos:R:3:forces:R:3 energy=-4.361706919687953 pbc="F F F"
Pr       0.00000000       0.00000000       0.00000000       0.00000000       0.00000000       0.39105651
Pr       0.00000000       0.00000000       5.82363636       0.00000000       0.00000000      -0.39105651
2
Properties=species:S:1:pos:R:3:forces:R:3 energy=-4.3425311869104934 pbc="F F F"
Pr       0.00000000       0.00000000       0.00000000       0.00000000       0.00000000       0.25200650
Pr       0.00000000       0.00000000       5.88242424       0.00000000       0.00000000      -0.25200650
2
Properties=species:S:1:pos:R:3:forces:R:3 energy=-4.332181644787407 pbc="F F F"
Pr       0.00000000       0.00000000       0.00000000       0.00000000       0.00000000       0.10691197
Pr       0.00000000       0.00000000       5.94121212       0.00000000       0.00000000      -0.10691197
2
Properties=species:S:1:pos:R:3:forces:R:3 energy=-4.32820202313845 pbc="F F F"
Pr       0.00000000       0.00000000       0.00000000       0.00000000       0.00000000       0.04782233
Pr       0.00000000       0.00000000       6.00000000       0.00000000       0.00000000      -0.04782233
