2
Properties=species:S:1:pos:R:3:forces:R:3 energy=7528.56402449633 pbc="F F F"
Rh       0.00000000       0.00000000       0.00000000       0.00000000       0.00000000 -123077.15625000
Rh       0.00000000       0.00000000       0.18000000       0.00000000       0.00000000  123077.15625000
2
Properties=species:S:1:pos:R:3:forces:R:3 energy=3138.8870225432042 pbc="F F F"
Rh       0.00000000       0.00000000       0.00000000       0.00000000       0.00000000  -42758.87890625
Rh       0.00000000       0.00000000       0.23878788       0.00000000       0.00000000   42758.87890625
2
Properties=species:S:1:pos:R:3:forces:R:3 energy=1493.552305752665 pbc="F F F"
Rh       0.00000000       0.00000000       0.00000000       0.00000000       0.00000000  -17512.90039062
Rh       0.00000000       0.00000000       0.29757576       0.00000000       0.00000000   17512.90039062
2
Properties=species:S:1:pos:R:3:forces:R:3 energy=786.5408311496255 pbc="F F F"
Rh       0.00000000       0.00000000       0.00000000       0.00000000       0.00000000   -7952.34521484
Rh       0.00000000       0.00000000       0.35636364       0.00000000       0.00000000    7952.34521484
2
Properties=species:S:1:pos:R:3:forces:R:3 energy=454.5953660680706 pbc="F F F"
Rh       0.00000000       0.00000000       0.00000000       0.00000000       0.00000000   -3882.47631836
Rh       0.00000000       0.00000000       0.41515152       0.00000000       0.00000000    3882.47631836
2
Properties=species:S:1:pos:R:3:forces:R:3 energy=288.1016527081713 pbc="F F F"
Rh       0.00000000       0.00000000       0.00000000       0.00000000       0.00000000   -2012.06738281
Rh       0.00000000       0.00000000       0.47393939       0.00000000       0.00000000    2012.06738281
2
Properties=species:S:1:pos:R:3:forces:R:3 energy=199.5613542842711 pbc="F F F"
Rh       0.00000000       0.00000000       0.00000000       0.00000000       0.00000000   -1105.16162109
Rh       0.00000000       0.00000000       0.53272727       0.00000000       0.00000000    1105.16162109
2
Properties=species:S:1:pos:R:3:forces:R:3 energy=149.52366513864314 pbc="F F F"
Rh       0.00000000       0.00000000       0.00000000       0.00000000       0.00000000    -647.74853516
Rh       0.00000000       0.00000000       0.59151515       0.00000000       0.00000000     647.74853516
2
Properties=species:S:1:pos:R:3:forces:R:3 energy=119.0812671687244 pbc="F F F"
Rh       0.00000000       0.00000000       0.00000000       0.00000000       0.00000000    -414.50292969
Rh       0.00000000       0.00000000       0.65030303       0.00000000       0.00000000     414.50292969
2
Properties=species:S:1:pos:R:3:forces:R:3 energy=98.62113091987692 pbc="F F F"
Rh       0.00000000       0.00000000       0.00000000       0.00000000       0.00000000    -293.64151001
Rh       0.00000000       0.00000000       0.70909091       0.00000000       0.00000000     293.64151001
2
Properties=species:S:1:pos:R:3:forces:R:3 energy=83.50461506002145 pbc="F F F"
Rh       0.00000000       0.00000000       0.00000000       0.00000000       0.00000000    -226.80426025
Rh       0.00000000       0.00000000       0.76787879       0.00000000       0.00000000     226.80426025
2
Properties=species:S:1:pos:R:3:forces:R:3 energy=71.59383356713725 pbc="F F F"
Rh       0.00000000       0.00000000       0.00000000       0.00000000       0.00000000    -178.87899780
Rh       0.00000000       0.00000000       0.82666667       0.00000000       0.00000000     178.87899780
2
Properties=species:S:1:pos:R:3:forces:R:3 energy=62.276294884243484 pbc="F F F"
Rh       0.00000000       0.00000000       0.00000000       0.00000000       0.00000000    -141.89900208
Rh       0.00000000       0.00000000       0.88545455       0.00000000       0.00000000     141.89900208
2
Properties=species:S:1:pos:R:3:forces:R:3 energy=54.44490142362158 pbc="F F F"
Rh       0.00000000       0.00000000       0.00000000       0.00000000       0.00000000    -128.24778748
Rh       0.00000000       0.00000000       0.94424242       0.00000000       0.00000000     128.24778748
2
Properties=species:S:1:pos:R:3:forces:R:3 energy=47.03879739582076 pbc="F F F"
Rh       0.00000000       0.00000000       0.00000000       0.00000000       0.00000000    -123.14638519
Rh       0.00000000       0.00000000       1.00303030       0.00000000       0.00000000     123.14638519
2
Properties=species:S:1:pos:R:3:forces:R:3 energy=39.98885676038965 pbc="F F F"
Rh       0.00000000       0.00000000       0.00000000       0.00000000       0.00000000    -118.23115540
Rh       0.00000000       0.00000000       1.06181818       0.00000000       0.00000000     118.23115540
2
Properties=species:S:1:pos:R:3:forces:R:3 energy=33.07654321640287 pbc="F F F"
Rh       0.00000000       0.00000000       0.00000000       0.00000000       0.00000000    -115.00067139
Rh       0.00000000       0.00000000       1.12060606       0.00000000       0.00000000     115.00067139
2
Properties=species:S:1:pos:R:3:forces:R:3 energy=26.750417592623677 pbc="F F F"
Rh       0.00000000       0.00000000       0.00000000       0.00000000       0.00000000     -98.16913605
Rh       0.00000000       0.00000000       1.17939394       0.00000000       0.00000000      98.16913605
2
Properties=species:S:1:pos:R:3:forces:R:3 energy=21.57411300619544 pbc="F F F"
Rh       0.00000000       0.00000000       0.00000000       0.00000000       0.00000000     -79.51737976
Rh       0.00000000       0.00000000       1.23818182       0.00000000       0.00000000      79.51737976
2
Properties=species:S:1:pos:R:3:forces:R:3 energy=17.15957380778201 pbc="F F F"
Rh       0.00000000       0.00000000       0.00000000       0.00000000       0.00000000     -71.92105865
Rh       0.00000000       0.00000000       1.29696970       0.00000000       0.00000000      71.92105865
2
Properties=species:S:1:pos:R:3:forces:R:3 energy=13.134497172083876 pbc="F F F"
Rh       0.00000000       0.00000000       0.00000000       0.00000000       0.00000000     -63.93802643
Rh       0.00000000       0.00000000       1.35575758       0.00000000       0.00000000      63.93802643
2
Properties=species:S:1:pos:R:3:forces:R:3 energy=9.753530575792432 pbc="F F F"
Rh       0.00000000       0.00000000       0.00000000       0.00000000       0.00000000     -50.81382370
Rh       0.00000000       0.00000000       1.41454545       0.00000000       0.00000000      50.81382370
2
Properties=species:S:1:pos:R:3:forces:R:3 energy=7.095281825201908 pbc="F F F"
Rh       0.00000000       0.00000000       0.00000000       0.00000000       0.00000000     -40.68145370
Rh       0.00000000       0.00000000       1.47333333       0.00000000       0.00000000      40.68145370
2
Properties=species:S:1:pos:R:3:forces:R:3 energy=4.857348683735831 pbc="F F F"
Rh       0.00000000       0.00000000       0.00000000       0.00000000       0.00000000     -36.05855942
Rh       0.00000000       0.00000000       1.53212121       0.00000000       0.00000000      36.05855942
2
Properties=species:S:1:pos:R:3:forces:R:3 energy=2.8294331873939176 pbc="F F F"
Rh       0.00000000       0.00000000       0.00000000       0.00000000       0.00000000     -32.90402603
Rh       0.00000000       0.00000000       1.59090909       0.00000000       0.00000000      32.90402603
2
Properties=species:S:1:pos:R:3:forces:R:3 energy=0.9998030430025752 pbc="F F F"
Rh       0.00000000       0.00000000       0.00000000       0.00000000       0.00000000     -29.25046921
Rh       0.00000000       0.00000000       1.64969697       0.00000000       0.00000000      29.25046921
2
Properties=species:S:1:pos:R:3:forces:R:3 energy=-0.6041557653355706 pbc="F F F"
Rh       0.00000000       0.00000000       0.00000000       0.00000000       0.00000000     -25.31345558
Rh       0.00000000       0.00000000       1.70848485       0.00000000       0.00000000      25.31345558
2
Properties=species:S:1:pos:R:3:forces:R:3 energy=-1.979430297686903 pbc="F F F"
Rh       0.00000000       0.00000000       0.00000000       0.00000000       0.00000000     -21.51616669
Rh       0.00000000       0.00000000       1.76727273       0.00000000       0.00000000      21.51616669
2
Properties=species:S:1:pos:R:3:forces:R:3 energy=-3.1388629731506317 pbc="F F F"
Rh       0.00000000       0.00000000       0.00000000       0.00000000       0.00000000     -17.96243858
Rh       0.00000000       0.00000000       1.82606061       0.00000000       0.00000000      17.96243858
2
Properties=species:S:1:pos:R:3:forces:R:3 energy=-4.093834336476937 pbc="F F F"
Rh       0.00000000       0.00000000       0.00000000       0.00000000       0.00000000     -14.53551865
Rh       0.00000000       0.00000000       1.88484848       0.00000000       0.00000000      14.53551865
2
Properties=species:S:1:pos:R:3:forces:R:3 energy=-4.8484502743963676 pbc="F F F"
Rh       0.00000000       0.00000000       0.00000000       0.00000000       0.00000000     -11.14360714
Rh       0.00000000       0.00000000       1.94363636       0.00000000       0.00000000      11.14360714
2
Properties=species:S:1:pos:R:3:forces:R:3 energy=-5.4060903179513655 pbc="F F F"
Rh       0.00000000       0.00000000       0.00000000       0.00000000       0.00000000      -7.85914564
Rh       0.00000000       0.00000000       2.00242424       0.00000000       0.00000000       7.85914564
2
Properties=species:S:1:pos:R:3:forces:R:3 energy=-5.7779950509079 pbc="F F F"
Rh       0.00000000       0.00000000       0.00000000       0.00000000       0.00000000      -4.85454988
Rh       0.00000000       0.00000000       2.06121212       0.00000000       0.00000000       4.85454988
2
Properties=species:S:1:pos:R:3:forces:R:3 energy=-5.985370993701122 pbc="F F F"
Rh       0.00000000       0.00000000       0.00000000       0.00000000       0.00000000      -2.28156376
Rh       0.00000000       0.00000000       2.12000000       0.00000000       0.00000000       2.28156376
2
Properties=species:S:1:pos:R:3:forces:R:3 energy=-6.056429024227168 pbc="F F F"
Rh       0.00000000       0.00000000       0.00000000       0.00000000       0.00000000      -0.22602756
Rh       0.00000000       0.00000000       2.17878788       0.00000000       0.00000000       0.22602756
2
Properties=species:S:1:pos:R:3:forces:R:3 energy=-6.022680375531226 pbc="F F F"
Rh       0.00000000       0.00000000       0.00000000       0.00000000       0.00000000       1.28328776
Rh       0.00000000       0.00000000       2.23757576       0.00000000       0.00000000      -1.28328776
2
Properties=species:S:1:pos:R:3:forces:R:3 energy=-5.915934833584216 pbc="F F F"
Rh       0.00000000       0.00000000       0.00000000       0.00000000       0.00000000       2.26381469
Rh       0.00000000       0.00000000       2.29636364       0.00000000       0.00000000      -2.26381469
2
Properties=species:S:1:pos:R:3:forces:R:3 energy=-5.765751088423826 pbc="F F F"
Rh       0.00000000       0.00000000       0.00000000       0.00000000       0.00000000       2.77389073
Rh       0.00000000       0.00000000       2.35515152       0.00000000       0.00000000      -2.77389073
2
Properties=species:S:1:pos:R:3:forces:R:3 energy=-5.597250605313378 pbc="F F F"
Rh       0.00000000       0.00000000       0.00000000       0.00000000       0.00000000       2.90407586
Rh       0.00000000       0.00000000       2.41393939       0.00000000       0.00000000      -2.90407586
2
Properties=species:S:1:pos:R:3:forces:R:3 energy=-5.429585154977986 pbc="F F F"
Rh       0.00000000       0.00000000       0.00000000       0.00000000       0.00000000       2.76490593
Rh       0.00000000       0.00000000       2.47272727       0.00000000       0.00000000      -2.76490593
2
Properties=species:S:1:pos:R:3:forces:R:3 energy=-5.275104827543801 pbc="F F F"
Rh       0.00000000       0.00000000       0.00000000       0.00000000       0.00000000       2.47552705
Rh       0.00000000       0.00000000       2.53151515       0.00000000       0.00000000      -2.47552705
2
Properties=species:S:1:pos:R:3:forces:R:3 energy=-5.139196806723305 pbc="F F F"
Rh       0.00000000       0.00000000       0.00000000       0.00000000       0.00000000       2.15113091
Rh       0.00000000       0.00000000       2.59030303       0.00000000       0.00000000      -2.15113091
2
Properties=species:S:1:pos:R:3:forces:R:3 energy=-5.020970429575624 pbc="F F F"
Rh       0.00000000       0.00000000       0.00000000       0.00000000       0.00000000       1.88760066
Rh       0.00000000       0.00000000       2.64909091       0.00000000       0.00000000      -1.88760066
2
Properties=species:S:1:pos:R:3:forces:R:3 energy=-4.914847997930864 pbc="F F F"
Rh       0.00000000       0.00000000       0.00000000       0.00000000       0.00000000       1.74523604
Rh       0.00000000       0.00000000       2.70787879       0.00000000       0.00000000      -1.74523604
2
Properties=species:S:1:pos:R:3:forces:R:3 energy=-4.813297380531701 pbc="F F F"
Rh       0.00000000       0.00000000       0.00000000       0.00000000       0.00000000       1.72679973
Rh       0.00000000       0.00000000       2.76666667       0.00000000       0.00000000      -1.72679973
2
Properties=species:S:1:pos:R:3:forces:R:3 energy=-4.710503243563217 pbc="F F F"
Rh       0.00000000       0.00000000       0.00000000       0.00000000       0.00000000       1.77515626
Rh       0.00000000       0.00000000       2.82545455       0.00000000       0.00000000      -1.77515626
2
Properties=species:S:1:pos:R:3:forces:R:3 energy=-4.604630645295219 pbc="F F F"
Rh       0.00000000       0.00000000       0.00000000       0.00000000       0.00000000       1.82219291
Rh       0.00000000       0.00000000       2.88424242       0.00000000       0.00000000      -1.82219291
2
Properties=species:S:1:pos:R:3:forces:R:3 energy=-4.4970861581976065 pbc="F F F"
Rh       0.00000000       0.00000000       0.00000000       0.00000000       0.00000000       1.82792246
Rh       0.00000000       0.00000000       2.94303030       0.00000000       0.00000000      -1.82792246
2
Properties=species:S:1:pos:R:3:forces:R:3 energy=-4.390755000300577 pbc="F F F"
Rh       0.00000000       0.00000000       0.00000000       0.00000000       0.00000000       1.78109634
Rh       0.00000000       0.00000000       3.00181818       0.00000000       0.00000000      -1.78109634
2
Properties=species:S:1:pos:R:3:forces:R:3 energy=-4.288496855660115 pbc="F F F"
Rh       0.00000000       0.00000000       0.00000000       0.00000000       0.00000000       1.69271898
Rh       0.00000000       0.00000000       3.06060606       0.00000000       0.00000000      -1.69271898
2
Properties=species:S:1:pos:R:3:forces:R:3 energy=-4.192065180848752 pbc="F F F"
Rh       0.00000000       0.00000000       0.00000000       0.00000000       0.00000000       1.58737266
Rh       0.00000000       0.00000000       3.11939394       0.00000000       0.00000000      -1.58737266
2
Properties=species:S:1:pos:R:3:forces:R:3 energy=-4.101707836989505 pbc="F F F"
Rh       0.00000000       0.00000000       0.00000000       0.00000000       0.00000000       1.48928809
Rh       0.00000000       0.00000000       3.17818182       0.00000000       0.00000000      -1.48928809
2
Properties=species:S:1:pos:R:3:forces:R:3 energy=-4.016576777228655 pbc="F F F"
Rh       0.00000000       0.00000000       0.00000000       0.00000000       0.00000000       1.41025531
Rh       0.00000000       0.00000000       3.23696970       0.00000000       0.00000000      -1.41025531
2
Properties=species:S:1:pos:R:3:forces:R:3 energy=-3.935584706131317 pbc="F F F"
Rh       0.00000000       0.00000000       0.00000000       0.00000000       0.00000000       1.34685349
Rh       0.00000000       0.00000000       3.29575758       0.00000000       0.00000000      -1.34685349
2
Properties=species:S:1:pos:R:3:forces:R:3 energy=-3.858158334368334 pbc="F F F"
Rh       0.00000000       0.00000000       0.00000000       0.00000000       0.00000000       1.28659272
Rh       0.00000000       0.00000000       3.35454545       0.00000000       0.00000000      -1.28659272
2
Properties=species:S:1:pos:R:3:forces:R:3 energy=-3.7844951101846998 pbc="F F F"
Rh       0.00000000       0.00000000       0.00000000       0.00000000       0.00000000       1.21725130
Rh       0.00000000       0.00000000       3.41333333       0.00000000       0.00000000      -1.21725130
2
Properties=species:S:1:pos:R:3:forces:R:3 energy=-3.715322596368608 pbc="F F F"
Rh       0.00000000       0.00000000       0.00000000       0.00000000       0.00000000       1.13374925
Rh       0.00000000       0.00000000       3.47212121       0.00000000       0.00000000      -1.13374925
2
Properties=species:S:1:pos:R:3:forces:R:3 energy=-3.651404192859013 pbc="F F F"
Rh       0.00000000       0.00000000       0.00000000       0.00000000       0.00000000       1.03972578
Rh       0.00000000       0.00000000       3.53090909       0.00000000       0.00000000      -1.03972578
2
Properties=species:S:1:pos:R:3:forces:R:3 energy=-3.5931016956737776 pbc="F F F"
Rh       0.00000000       0.00000000       0.00000000       0.00000000       0.00000000       0.94441450
Rh       0.00000000       0.00000000       3.58969697       0.00000000       0.00000000      -0.94441450
2
Properties=species:S:1:pos:R:3:forces:R:3 energy=-3.540192896361274 pbc="F F F"
Rh       0.00000000       0.00000000       0.00000000       0.00000000       0.00000000       0.85767972
Rh       0.00000000       0.00000000       3.64848485       0.00000000       0.00000000      -0.85767972
2
Properties=species:S:1:pos:R:3:forces:R:3 energy=-3.4919593263731405 pbc="F F F"
Rh       0.00000000       0.00000000       0.00000000       0.00000000       0.00000000       0.78609562
Rh       0.00000000       0.00000000       3.70727273       0.00000000       0.00000000      -0.78609562
2
Properties=species:S:1:pos:R:3:forces:R:3 energy=-3.447430235298432 pbc="F F F"
Rh       0.00000000       0.00000000       0.00000000       0.00000000       0.00000000       0.73154622
Rh       0.00000000       0.00000000       3.76606061       0.00000000       0.00000000      -0.73154622
2
Properties=species:S:1:pos:R:3:forces:R:3 energy=-3.405652111563958 pbc="F F F"
Rh       0.00000000       0.00000000       0.00000000       0.00000000       0.00000000       0.69195688
Rh       0.00000000       0.00000000       3.82484848       0.00000000       0.00000000      -0.69195688
2
Properties=species:S:1:pos:R:3:forces:R:3 energy=-3.365864654352593 pbc="F F F"
Rh       0.00000000       0.00000000       0.00000000       0.00000000       0.00000000       0.66298783
Rh       0.00000000       0.00000000       3.88363636       0.00000000       0.00000000      -0.66298783
2
Properties=species:S:1:pos:R:3:forces:R:3 energy=-3.327588505304741 pbc="F F F"
Rh       0.00000000       0.00000000       0.00000000       0.00000000       0.00000000       0.63978440
Rh       0.00000000       0.00000000       3.94242424       0.00000000       0.00000000      -0.63978440
2
Properties=species:S:1:pos:R:3:forces:R:3 energy=-3.290611175486525 pbc="F F F"
Rh       0.00000000       0.00000000       0.00000000       0.00000000       0.00000000       0.61821270
Rh       0.00000000       0.00000000       4.00121212       0.00000000       0.00000000      -0.61821270
2
Properties=species:S:1:pos:R:3:forces:R:3 energy=-3.2549252189500666 pbc="F F F"
Rh       0.00000000       0.00000000       0.00000000       0.00000000       0.00000000       0.59550351
Rh       0.00000000       0.00000000       4.06000000       0.00000000       0.00000000      -0.59550351
2
Properties=species:S:1:pos:R:3:forces:R:3 energy=-3.2206426214566575 pbc="F F F"
Rh       0.00000000       0.00000000       0.00000000       0.00000000       0.00000000       0.57037157
Rh       0.00000000       0.00000000       4.11878788       0.00000000       0.00000000      -0.57037157
2
Properties=species:S:1:pos:R:3:forces:R:3 energy=-3.1879126324300846 pbc="F F F"
Rh       0.00000000       0.00000000       0.00000000       0.00000000       0.00000000       0.54272026
Rh       0.00000000       0.00000000       4.17757576       0.00000000       0.00000000      -0.54272026
2
Properties=species:S:1:pos:R:3:forces:R:3 energy=-3.156868645962741 pbc="F F F"
Rh       0.00000000       0.00000000       0.00000000       0.00000000       0.00000000       0.51317936
Rh       0.00000000       0.00000000       4.23636364       0.00000000       0.00000000      -0.51317936
2
Properties=species:S:1:pos:R:3:forces:R:3 energy=-3.127594965598464 pbc="F F F"
Rh       0.00000000       0.00000000       0.00000000       0.00000000       0.00000000       0.48261344
Rh       0.00000000       0.00000000       4.29515152       0.00000000       0.00000000      -0.48261344
2
Properties=species:S:1:pos:R:3:forces:R:3 energy=-3.100130975489722 pbc="F F F"
Rh       0.00000000       0.00000000       0.00000000       0.00000000       0.00000000       0.45175943
Rh       0.00000000       0.00000000       4.35393939       0.00000000       0.00000000      -0.45175943
2
Properties=species:S:1:pos:R:3:forces:R:3 energy=-3.0744774486504562 pbc="F F F"
Rh       0.00000000       0.00000000       0.00000000       0.00000000       0.00000000       0.42101142
Rh       0.00000000       0.00000000       4.41272727       0.00000000       0.00000000      -0.42101142
2
Properties=species:S:1:pos:R:3:forces:R:3 energy=-3.0506269885064756 pbc="F F F"
Rh       0.00000000       0.00000000       0.00000000       0.00000000       0.00000000       0.39039755
Rh       0.00000000       0.00000000       4.47151515       0.00000000       0.00000000      -0.39039755
2
Properties=species:S:1:pos:R:3:forces:R:3 energy=-3.0285786524562535 pbc="F F F"
Rh       0.00000000       0.00000000       0.00000000       0.00000000       0.00000000       0.35962668
Rh       0.00000000       0.00000000       4.53030303       0.00000000       0.00000000      -0.35962668
2
Properties=species:S:1:pos:R:3:forces:R:3 energy=-3.008355868942322 pbc="F F F"
Rh       0.00000000       0.00000000       0.00000000       0.00000000       0.00000000       0.32822201
Rh       0.00000000       0.00000000       4.58909091       0.00000000       0.00000000      -0.32822201
2
Properties=species:S:1:pos:R:3:forces:R:3 energy=-2.99001099357877 pbc="F F F"
Rh       0.00000000       0.00000000       0.00000000       0.00000000       0.00000000       0.29565132
Rh       0.00000000       0.00000000       4.64787879       0.00000000       0.00000000      -0.29565132
2
Properties=species:S:1:pos:R:3:forces:R:3 energy=-2.9736260244069816 pbc="F F F"
Rh       0.00000000       0.00000000       0.00000000       0.00000000       0.00000000       0.26146337
Rh       0.00000000       0.00000000       4.70666667       0.00000000       0.00000000      -0.26146337
2
Properties=species:S:1:pos:R:3:forces:R:3 energy=-2.959305020850352 pbc="F F F"
Rh       0.00000000       0.00000000       0.00000000       0.00000000       0.00000000       0.22545725
Rh       0.00000000       0.00000000       4.76545455       0.00000000       0.00000000      -0.22545725
2
Properties=species:S:1:pos:R:3:forces:R:3 energy=-2.9471495307615334 pbc="F F F"
Rh       0.00000000       0.00000000       0.00000000       0.00000000       0.00000000       0.18784101
Rh       0.00000000       0.00000000       4.82424242       0.00000000       0.00000000      -0.18784101
2
Properties=species:S:1:pos:R:3:forces:R:3 energy=-2.9372354416455035 pbc="F F F"
Rh       0.00000000       0.00000000       0.00000000       0.00000000       0.00000000       0.14945090
Rh       0.00000000       0.00000000       4.88303030       0.00000000       0.00000000      -0.14945090
2
Properties=species:S:1:pos:R:3:forces:R:3 energy=-2.929562340886134 pbc="F F F"
Rh       0.00000000       0.00000000       0.00000000       0.00000000       0.00000000       0.11189220
Rh       0.00000000       0.00000000       4.94181818       0.00000000       0.00000000      -0.11189220
2
Properties=species:S:1:pos:R:3:forces:R:3 energy=-2.9240156895554885 pbc="F F F"
Rh       0.00000000       0.00000000       0.00000000       0.00000000       0.00000000       0.07756822
Rh       0.00000000       0.00000000       5.00060606       0.00000000       0.00000000      -0.07756822
2
Properties=species:S:1:pos:R:3:forces:R:3 energy=-2.920323760517846 pbc="F F F"
Rh       0.00000000       0.00000000       0.00000000       0.00000000       0.00000000       0.04926044
Rh       0.00000000       0.00000000       5.05939394       0.00000000       0.00000000      -0.04926044
2
Properties=species:S:1:pos:R:3:forces:R:3 energy=-2.9180608812551463 pbc="F F F"
Rh       0.00000000       0.00000000       0.00000000       0.00000000       0.00000000       0.02921685
Rh       0.00000000       0.00000000       5.11818182       0.00000000       0.00000000      -0.02921685
2
Properties=species:S:1:pos:R:3:forces:R:3 energy=-2.91671531580585 pbc="F F F"
Rh       0.00000000       0.00000000       0.00000000       0.00000000       0.00000000       0.01792435
Rh       0.00000000       0.00000000       5.17696970       0.00000000       0.00000000      -0.01792435
2
Properties=species:S:1:pos:R:3:forces:R:3 energy=-2.9158209130022885 pbc="F F F"
Rh       0.00000000       0.00000000       0.00000000       0.00000000       0.00000000       0.01333239
Rh       0.00000000       0.00000000       5.23575758       0.00000000       0.00000000      -0.01333239
2
Properties=species:S:1:pos:R:3:forces:R:3 energy=-2.9150885447998403 pbc="F F F"
Rh       0.00000000       0.00000000       0.00000000       0.00000000       0.00000000       0.01182448
Rh       0.00000000       0.00000000       5.29454545       0.00000000       0.00000000      -0.01182448
2
Properties=species:S:1:pos:R:3:forces:R:3 energy=-2.9144019287840996 pbc="F F F"
Rh       0.00000000       0.00000000       0.00000000       0.00000000       0.00000000       0.01202624
Rh       0.00000000       0.00000000       5.35333333       0.00000000       0.00000000      -0.01202624
2
Properties=species:S:1:pos:R:3:forces:R:3 energy=-2.9135467814971996 pbc="F F F"
Rh       0.00000000       0.00000000       0.00000000       0.00000000       0.00000000       0.01877004
Rh       0.00000000       0.00000000       5.41212121       0.00000000       0.00000000      -0.01877004
2
Properties=species:S:1:pos:R:3:forces:R:3 energy=-2.911997109027817 pbc="F F F"
Rh       0.00000000       0.00000000       0.00000000       0.00000000       0.00000000       0.03482018
Rh       0.00000000       0.00000000       5.47090909       0.00000000       0.00000000      -0.03482018
2
Properties=species:S:1:pos:R:3:forces:R:3 energy=-2.9095448958211607 pbc="F F F"
Rh       0.00000000       0.00000000       0.00000000       0.00000000       0.00000000       0.04639183
Rh       0.00000000       0.00000000       5.52969697       0.00000000       0.00000000      -0.04639183
2
Properties=species:S:1:pos:R:3:forces:R:3 energy=-2.9068180100213974 pbc="F F F"
Rh       0.00000000       0.00000000       0.00000000       0.00000000       0.00000000       0.04476655
Rh       0.00000000       0.00000000       5.58848485       0.00000000       0.00000000      -0.04476655
2
Properties=species:S:1:pos:R:3:forces:R:3 energy=-2.90432211007602 pbc="F F F"
Rh       0.00000000       0.00000000       0.00000000       0.00000000       0.00000000       0.04097316
Rh       0.00000000       0.00000000       5.64727273       0.00000000       0.00000000      -0.04097316
2
Properties=species:S:1:pos:R:3:forces:R:3 energy=-2.901839318233309 pbc="F F F"
Rh       0.00000000       0.00000000       0.00000000       0.00000000       0.00000000       0.04473473
Rh       0.00000000       0.00000000       5.70606061       0.00000000       0.00000000      -0.04473473
2
Properties=species:S:1:pos:R:3:forces:R:3 energy=-2.8990660789404497 pbc="F F F"
Rh       0.00000000       0.00000000       0.00000000       0.00000000       0.00000000       0.04782839
Rh       0.00000000       0.00000000       5.76484848       0.00000000       0.00000000      -0.04782839
2
Properties=species:S:1:pos:R:3:forces:R:3 energy=-2.896492768929124 pbc="F F F"
Rh       0.00000000       0.00000000       0.00000000       0.00000000       0.00000000       0.03784167
Rh       0.00000000       0.00000000       5.82363636       0.00000000       0.00000000      -0.03784167
2
Properties=species:S:1:pos:R:3:forces:R:3 energy=-2.8946979164488393 pbc="F F F"
Rh       0.00000000       0.00000000       0.00000000       0.00000000       0.00000000       0.02383833
Rh       0.00000000       0.00000000       5.88242424       0.00000000       0.00000000      -0.02383833
2
Properties=species:S:1:pos:R:3:forces:R:3 energy=-2.8935753353485887 pbc="F F F"
Rh       0.00000000       0.00000000       0.00000000       0.00000000       0.00000000       0.01530896
Rh       0.00000000       0.00000000       5.94121212       0.00000000       0.00000000      -0.01530896
2
Properties=species:S:1:pos:R:3:forces:R:3 energy=-2.892791904587837 pbc="F F F"
Rh       0.00000000       0.00000000       0.00000000       0.00000000       0.00000000       0.01216704
Rh       0.00000000       0.00000000       6.00000000       0.00000000       0.00000000      -0.01216704
