2
Properties=species:S:1:pos:R:3:forces:R:3 energy=1459.4393234290742 pbc="F F F"
Si       0.00000000       0.00000000       0.00000000       0.00000000       0.00000000  -19525.04492188
Si       0.00000000       0.00000000       0.18000000       0.00000000       0.00000000   19525.04492188
2
Properties=species:S:1:pos:R:3:forces:R:3 energy=731.1852951087616 pbc="F F F"
Si       0.00000000       0.00000000       0.00000000       0.00000000       0.00000000   -7521.10595703
Si       0.00000000       0.00000000       0.23878788       0.00000000       0.00000000    7521.10595703
2
Properties=species:S:1:pos:R:3:forces:R:3 energy=429.84362030724196 pbc="F F F"
Si       0.00000000       0.00000000       0.00000000       0.00000000       0.00000000   -3383.27294922
Si       0.00000000       0.00000000       0.29757576       0.00000000       0.00000000    3383.27294922
2
Properties=species:S:1:pos:R:3:forces:R:3 energy=287.38665009873387 pbc="F F F"
Si       0.00000000       0.00000000       0.00000000       0.00000000       0.00000000   -1693.03503418
Si       0.00000000       0.00000000       0.35636364       0.00000000       0.00000000    1693.03503418
2
Properties=species:S:1:pos:R:3:forces:R:3 energy=213.36345675203012 pbc="F F F"
Si       0.00000000       0.00000000       0.00000000       0.00000000       0.00000000    -919.62811279
Si       0.00000000       0.00000000       0.41515152       0.00000000       0.00000000     919.62811279
2
Properties=species:S:1:pos:R:3:forces:R:3 energy=171.65845494948584 pbc="F F F"
Si       0.00000000       0.00000000       0.00000000       0.00000000       0.00000000    -543.31994629
Si       0.00000000       0.00000000       0.47393939       0.00000000       0.00000000     543.31994629
2
Properties=species:S:1:pos:R:3:forces:R:3 energy=145.7268906691163 pbc="F F F"
Si       0.00000000       0.00000000       0.00000000       0.00000000       0.00000000    -361.95181274
Si       0.00000000       0.00000000       0.53272727       0.00000000       0.00000000     361.95181274
2
Properties=species:S:1:pos:R:3:forces:R:3 energy=127.07006855322548 pbc="F F F"
Si       0.00000000       0.00000000       0.00000000       0.00000000       0.00000000    -285.58883667
Si       0.00000000       0.00000000       0.59151515       0.00000000       0.00000000     285.58883667
2
Properties=species:S:1:pos:R:3:forces:R:3 energy=111.00772129317157 pbc="F F F"
Si       0.00000000       0.00000000       0.00000000       0.00000000       0.00000000    -267.57373047
Si       0.00000000       0.00000000       0.65030303       0.00000000       0.00000000     267.57373047
2
Properties=species:S:1:pos:R:3:forces:R:3 energy=95.30913601416869 pbc="F F F"
Si       0.00000000       0.00000000       0.00000000       0.00000000       0.00000000    -265.02072144
Si       0.00000000       0.00000000       0.70909091       0.00000000       0.00000000     265.02072144
2
Properties=species:S:1:pos:R:3:forces:R:3 energy=80.20345399591788 pbc="F F F"
Si       0.00000000       0.00000000       0.00000000       0.00000000       0.00000000    -245.62757874
Si       0.00000000       0.00000000       0.76787879       0.00000000       0.00000000     245.62757874
2
Properties=species:S:1:pos:R:3:forces:R:3 energy=66.66368248491713 pbc="F F F"
Si       0.00000000       0.00000000       0.00000000       0.00000000       0.00000000    -214.42076111
Si       0.00000000       0.00000000       0.82666667       0.00000000       0.00000000     214.42076111
2
Properties=species:S:1:pos:R:3:forces:R:3 energy=55.23035269663449 pbc="F F F"
Si       0.00000000       0.00000000       0.00000000       0.00000000       0.00000000    -171.72341919
Si       0.00000000       0.00000000       0.88545455       0.00000000       0.00000000     171.72341919
2
Properties=species:S:1:pos:R:3:forces:R:3 energy=46.42062703326356 pbc="F F F"
Si       0.00000000       0.00000000       0.00000000       0.00000000       0.00000000    -130.91326904
Si       0.00000000       0.00000000       0.94424242       0.00000000       0.00000000     130.91326904
2
Properties=species:S:1:pos:R:3:forces:R:3 energy=39.383488585212326 pbc="F F F"
Si       0.00000000       0.00000000       0.00000000       0.00000000       0.00000000    -112.81324768
Si       0.00000000       0.00000000       1.00303030       0.00000000       0.00000000     112.81324768
2
Properties=species:S:1:pos:R:3:forces:R:3 energy=32.83533379197388 pbc="F F F"
Si       0.00000000       0.00000000       0.00000000       0.00000000       0.00000000    -110.79194641
Si       0.00000000       0.00000000       1.06181818       0.00000000       0.00000000     110.79194641
2
Properties=species:S:1:pos:R:3:forces:R:3 energy=26.402829815637453 pbc="F F F"
Si       0.00000000       0.00000000       0.00000000       0.00000000       0.00000000    -106.76059723
Si       0.00000000       0.00000000       1.12060606       0.00000000       0.00000000     106.76059723
2
Properties=species:S:1:pos:R:3:forces:R:3 energy=20.467904311164183 pbc="F F F"
Si       0.00000000       0.00000000       0.00000000       0.00000000       0.00000000     -93.89012909
Si       0.00000000       0.00000000       1.17939394       0.00000000       0.00000000      93.89012909
2
Properties=species:S:1:pos:R:3:forces:R:3 energy=15.428763219428864 pbc="F F F"
Si       0.00000000       0.00000000       0.00000000       0.00000000       0.00000000     -77.34726715
Si       0.00000000       0.00000000       1.23818182       0.00000000       0.00000000      77.34726715
2
Properties=species:S:1:pos:R:3:forces:R:3 energy=11.40695542433144 pbc="F F F"
Si       0.00000000       0.00000000       0.00000000       0.00000000       0.00000000     -59.31687546
Si       0.00000000       0.00000000       1.29696970       0.00000000       0.00000000      59.31687546
2
Properties=species:S:1:pos:R:3:forces:R:3 energy=8.407288661030151 pbc="F F F"
Si       0.00000000       0.00000000       0.00000000       0.00000000       0.00000000     -43.68342209
Si       0.00000000       0.00000000       1.35575758       0.00000000       0.00000000      43.68342209
2
Properties=species:S:1:pos:R:3:forces:R:3 energy=6.136875072283484 pbc="F F F"
Si       0.00000000       0.00000000       0.00000000       0.00000000       0.00000000     -34.64513016
Si       0.00000000       0.00000000       1.41454545       0.00000000       0.00000000      34.64513016
2
Properties=species:S:1:pos:R:3:forces:R:3 energy=4.234862768203583 pbc="F F F"
Si       0.00000000       0.00000000       0.00000000       0.00000000       0.00000000     -30.62215614
Si       0.00000000       0.00000000       1.47333333       0.00000000       0.00000000      30.62215614
2
Properties=species:S:1:pos:R:3:forces:R:3 energy=2.501374408983402 pbc="F F F"
Si       0.00000000       0.00000000       0.00000000       0.00000000       0.00000000     -28.43208885
Si       0.00000000       0.00000000       1.53212121       0.00000000       0.00000000      28.43208885
2
Properties=species:S:1:pos:R:3:forces:R:3 energy=0.8983109487728985 pbc="F F F"
Si       0.00000000       0.00000000       0.00000000       0.00000000       0.00000000     -25.97550011
Si       0.00000000       0.00000000       1.59090909       0.00000000       0.00000000      25.97550011
2
Properties=species:S:1:pos:R:3:forces:R:3 energy=-0.5367652247845373 pbc="F F F"
Si       0.00000000       0.00000000       0.00000000       0.00000000       0.00000000     -22.73268509
Si       0.00000000       0.00000000       1.64969697       0.00000000       0.00000000      22.73268509
2
Properties=species:S:1:pos:R:3:forces:R:3 energy=-1.7655770916971059 pbc="F F F"
Si       0.00000000       0.00000000       0.00000000       0.00000000       0.00000000     -19.03377151
Si       0.00000000       0.00000000       1.70848485       0.00000000       0.00000000      19.03377151
2
Properties=species:S:1:pos:R:3:forces:R:3 energy=-2.773606952705285 pbc="F F F"
Si       0.00000000       0.00000000       0.00000000       0.00000000       0.00000000     -15.27450943
Si       0.00000000       0.00000000       1.76727273       0.00000000       0.00000000      15.27450943
2
Properties=species:S:1:pos:R:3:forces:R:3 energy=-3.5651327992191577 pbc="F F F"
Si       0.00000000       0.00000000       0.00000000       0.00000000       0.00000000     -11.69849873
Si       0.00000000       0.00000000       1.82606061       0.00000000       0.00000000      11.69849873
2
Properties=species:S:1:pos:R:3:forces:R:3 energy=-4.155719151443118 pbc="F F F"
Si       0.00000000       0.00000000       0.00000000       0.00000000       0.00000000      -8.46057320
Si       0.00000000       0.00000000       1.88484848       0.00000000       0.00000000       8.46057320
2
Properties=species:S:1:pos:R:3:forces:R:3 energy=-4.5687618488101975 pbc="F F F"
Si       0.00000000       0.00000000       0.00000000       0.00000000       0.00000000      -5.67364979
Si       0.00000000       0.00000000       1.94363636       0.00000000       0.00000000       5.67364979
2
Properties=species:S:1:pos:R:3:forces:R:3 energy=-4.8329102421303265 pbc="F F F"
Si       0.00000000       0.00000000       0.00000000       0.00000000       0.00000000      -3.40023780
Si       0.00000000       0.00000000       2.00242424       0.00000000       0.00000000       3.40023780
2
Properties=species:S:1:pos:R:3:forces:R:3 energy=-4.978618195579003 pbc="F F F"
Si       0.00000000       0.00000000       0.00000000       0.00000000       0.00000000      -1.63878632
Si       0.00000000       0.00000000       2.06121212       0.00000000       0.00000000       1.63878632
2
Properties=species:S:1:pos:R:3:forces:R:3 energy=-5.034491770659055 pbc="F F F"
Si       0.00000000       0.00000000       0.00000000       0.00000000       0.00000000      -0.33044031
Si       0.00000000       0.00000000       2.12000000       0.00000000       0.00000000       0.33044031
2
Properties=species:S:1:pos:R:3:forces:R:3 energy=-5.02451988269868 pbc="F F F"
Si       0.00000000       0.00000000       0.00000000       0.00000000       0.00000000       0.61833638
Si       0.00000000       0.00000000       2.17878788       0.00000000       0.00000000      -0.61833638
2
Properties=species:S:1:pos:R:3:forces:R:3 energy=-4.966854261465111 pbc="F F F"
Si       0.00000000       0.00000000       0.00000000       0.00000000       0.00000000       1.30812955
Si       0.00000000       0.00000000       2.23757576       0.00000000       0.00000000      -1.30812955
2
Properties=species:S:1:pos:R:3:forces:R:3 energy=-4.8741496483025 pbc="F F F"
Si       0.00000000       0.00000000       0.00000000       0.00000000       0.00000000       1.82143974
Si       0.00000000       0.00000000       2.29636364       0.00000000       0.00000000      -1.82143974
2
Properties=species:S:1:pos:R:3:forces:R:3 energy=-4.755177976947618 pbc="F F F"
Si       0.00000000       0.00000000       0.00000000       0.00000000       0.00000000       2.20710015
Si       0.00000000       0.00000000       2.35515152       0.00000000       0.00000000      -2.20710015
2
Properties=species:S:1:pos:R:3:forces:R:3 energy=-4.616785766065837 pbc="F F F"
Si       0.00000000       0.00000000       0.00000000       0.00000000       0.00000000       2.48325062
Si       0.00000000       0.00000000       2.41393939       0.00000000       0.00000000      -2.48325062
2
Properties=species:S:1:pos:R:3:forces:R:3 energy=-4.4652753051189515 pbc="F F F"
Si       0.00000000       0.00000000       0.00000000       0.00000000       0.00000000       2.65394807
Si       0.00000000       0.00000000       2.47272727       0.00000000       0.00000000      -2.65394807
2
Properties=species:S:1:pos:R:3:forces:R:3 energy=-4.306679280955417 pbc="F F F"
Si       0.00000000       0.00000000       0.00000000       0.00000000       0.00000000       2.72637439
Si       0.00000000       0.00000000       2.53151515       0.00000000       0.00000000      -2.72637439
2
Properties=species:S:1:pos:R:3:forces:R:3 energy=-4.146302699630317 pbc="F F F"
Si       0.00000000       0.00000000       0.00000000       0.00000000       0.00000000       2.71831584
Si       0.00000000       0.00000000       2.59030303       0.00000000       0.00000000      -2.71831584
2
Properties=species:S:1:pos:R:3:forces:R:3 energy=-3.988144058669487 pbc="F F F"
Si       0.00000000       0.00000000       0.00000000       0.00000000       0.00000000       2.65555978
Si       0.00000000       0.00000000       2.64909091       0.00000000       0.00000000      -2.65555978
2
Properties=species:S:1:pos:R:3:forces:R:3 energy=-3.834597892255619 pbc="F F F"
Si       0.00000000       0.00000000       0.00000000       0.00000000       0.00000000       2.56589746
Si       0.00000000       0.00000000       2.70787879       0.00000000       0.00000000      -2.56589746
2
Properties=species:S:1:pos:R:3:forces:R:3 energy=-3.6864904090431208 pbc="F F F"
Si       0.00000000       0.00000000       0.00000000       0.00000000       0.00000000       2.47411895
Si       0.00000000       0.00000000       2.76666667       0.00000000       0.00000000      -2.47411895
2
Properties=species:S:1:pos:R:3:forces:R:3 energy=-3.543438902217866 pbc="F F F"
Si       0.00000000       0.00000000       0.00000000       0.00000000       0.00000000       2.39520502
Si       0.00000000       0.00000000       2.82545455       0.00000000       0.00000000      -2.39520502
2
Properties=species:S:1:pos:R:3:forces:R:3 energy=-3.4046245430777082 pbc="F F F"
Si       0.00000000       0.00000000       0.00000000       0.00000000       0.00000000       2.32862115
Si       0.00000000       0.00000000       2.88424242       0.00000000       0.00000000      -2.32862115
2
Properties=species:S:1:pos:R:3:forces:R:3 energy=-3.269633364829357 pbc="F F F"
Si       0.00000000       0.00000000       0.00000000       0.00000000       0.00000000       2.26278114
Si       0.00000000       0.00000000       2.94303030       0.00000000       0.00000000      -2.26278114
2
Properties=species:S:1:pos:R:3:forces:R:3 energy=-3.138836513212137 pbc="F F F"
Si       0.00000000       0.00000000       0.00000000       0.00000000       0.00000000       2.18379498
Si       0.00000000       0.00000000       3.00181818       0.00000000       0.00000000      -2.18379498
2
Properties=species:S:1:pos:R:3:forces:R:3 energy=-3.0133391525242352 pbc="F F F"
Si       0.00000000       0.00000000       0.00000000       0.00000000       0.00000000       2.08122659
Si       0.00000000       0.00000000       3.06060606       0.00000000       0.00000000      -2.08122659
2
Properties=species:S:1:pos:R:3:forces:R:3 energy=-2.894679644307625 pbc="F F F"
Si       0.00000000       0.00000000       0.00000000       0.00000000       0.00000000       1.95112896
Si       0.00000000       0.00000000       3.11939394       0.00000000       0.00000000      -1.95112896
2
Properties=species:S:1:pos:R:3:forces:R:3 energy=-2.7844126969241625 pbc="F F F"
Si       0.00000000       0.00000000       0.00000000       0.00000000       0.00000000       1.79670131
Si       0.00000000       0.00000000       3.17818182       0.00000000       0.00000000      -1.79670131
2
Properties=species:S:1:pos:R:3:forces:R:3 energy=-2.683736955960218 pbc="F F F"
Si       0.00000000       0.00000000       0.00000000       0.00000000       0.00000000       1.62672126
Si       0.00000000       0.00000000       3.23696970       0.00000000       0.00000000      -1.62672126
2
Properties=species:S:1:pos:R:3:forces:R:3 energy=-2.5932308446657 pbc="F F F"
Si       0.00000000       0.00000000       0.00000000       0.00000000       0.00000000       1.45265043
Si       0.00000000       0.00000000       3.29575758       0.00000000       0.00000000      -1.45265043
2
Properties=species:S:1:pos:R:3:forces:R:3 energy=-2.512801073413265 pbc="F F F"
Si       0.00000000       0.00000000       0.00000000       0.00000000       0.00000000       1.28564119
Si       0.00000000       0.00000000       3.35454545       0.00000000       0.00000000      -1.28564119
2
Properties=species:S:1:pos:R:3:forces:R:3 energy=-2.4417604975560057 pbc="F F F"
Si       0.00000000       0.00000000       0.00000000       0.00000000       0.00000000       1.13431370
Si       0.00000000       0.00000000       3.41333333       0.00000000       0.00000000      -1.13431370
2
Properties=species:S:1:pos:R:3:forces:R:3 energy=-2.3790231791834184 pbc="F F F"
Si       0.00000000       0.00000000       0.00000000       0.00000000       0.00000000       1.00374734
Si       0.00000000       0.00000000       3.47212121       0.00000000       0.00000000      -1.00374734
2
Properties=species:S:1:pos:R:3:forces:R:3 energy=-2.323305529878937 pbc="F F F"
Si       0.00000000       0.00000000       0.00000000       0.00000000       0.00000000       0.89551914
Si       0.00000000       0.00000000       3.53090909       0.00000000       0.00000000      -0.89551914
2
Properties=species:S:1:pos:R:3:forces:R:3 energy=-2.2733153939962594 pbc="F F F"
Si       0.00000000       0.00000000       0.00000000       0.00000000       0.00000000       0.80846304
Si       0.00000000       0.00000000       3.58969697       0.00000000       0.00000000      -0.80846304
2
Properties=species:S:1:pos:R:3:forces:R:3 energy=-2.227890908810774 pbc="F F F"
Si       0.00000000       0.00000000       0.00000000       0.00000000       0.00000000       0.73965353
Si       0.00000000       0.00000000       3.64848485       0.00000000       0.00000000      -0.73965353
2
Properties=species:S:1:pos:R:3:forces:R:3 energy=-2.186067664867039 pbc="F F F"
Si       0.00000000       0.00000000       0.00000000       0.00000000       0.00000000       0.68529904
Si       0.00000000       0.00000000       3.70727273       0.00000000       0.00000000      -0.68529904
2
Properties=species:S:1:pos:R:3:forces:R:3 energy=-2.1471104980131797 pbc="F F F"
Si       0.00000000       0.00000000       0.00000000       0.00000000       0.00000000       0.64144516
Si       0.00000000       0.00000000       3.76606061       0.00000000       0.00000000      -0.64144516
2
Properties=species:S:1:pos:R:3:forces:R:3 energy=-2.1105148945697847 pbc="F F F"
Si       0.00000000       0.00000000       0.00000000       0.00000000       0.00000000       0.60446137
Si       0.00000000       0.00000000       3.82484848       0.00000000       0.00000000      -0.60446137
2
Properties=species:S:1:pos:R:3:forces:R:3 energy=-2.07596595165608 pbc="F F F"
Si       0.00000000       0.00000000       0.00000000       0.00000000       0.00000000       0.57130736
Si       0.00000000       0.00000000       3.88363636       0.00000000       0.00000000      -0.57130736
2
Properties=species:S:1:pos:R:3:forces:R:3 energy=-2.0433133020574354 pbc="F F F"
Si       0.00000000       0.00000000       0.00000000       0.00000000       0.00000000       0.53966409
Si       0.00000000       0.00000000       3.94242424       0.00000000       0.00000000      -0.53966409
2
Properties=species:S:1:pos:R:3:forces:R:3 energy=-2.012517904532584 pbc="F F F"
Si       0.00000000       0.00000000       0.00000000       0.00000000       0.00000000       0.50792128
Si       0.00000000       0.00000000       4.00121212       0.00000000       0.00000000      -0.50792128
2
Properties=species:S:1:pos:R:3:forces:R:3 energy=-1.98361553926049 pbc="F F F"
Si       0.00000000       0.00000000       0.00000000       0.00000000       0.00000000       0.47512466
Si       0.00000000       0.00000000       4.06000000       0.00000000       0.00000000      -0.47512466
2
Properties=species:S:1:pos:R:3:forces:R:3 energy=-1.9566822803279398 pbc="F F F"
Si       0.00000000       0.00000000       0.00000000       0.00000000       0.00000000       0.44092402
Si       0.00000000       0.00000000       4.11878788       0.00000000       0.00000000      -0.44092402
2
Properties=species:S:1:pos:R:3:forces:R:3 energy=-1.9317974256402282 pbc="F F F"
Si       0.00000000       0.00000000       0.00000000       0.00000000       0.00000000       0.40552440
Si       0.00000000       0.00000000       4.17757576       0.00000000       0.00000000      -0.40552440
2
Properties=species:S:1:pos:R:3:forces:R:3 energy=-1.9090117955856547 pbc="F F F"
Si       0.00000000       0.00000000       0.00000000       0.00000000       0.00000000       0.36965513
Si       0.00000000       0.00000000       4.23636364       0.00000000       0.00000000      -0.36965513
2
Properties=species:S:1:pos:R:3:forces:R:3 energy=-1.8883210163154225 pbc="F F F"
Si       0.00000000       0.00000000       0.00000000       0.00000000       0.00000000       0.33447713
Si       0.00000000       0.00000000       4.29515152       0.00000000       0.00000000      -0.33447713
2
Properties=species:S:1:pos:R:3:forces:R:3 energy=-1.8696438636666768 pbc="F F F"
Si       0.00000000       0.00000000       0.00000000       0.00000000       0.00000000       0.30142707
Si       0.00000000       0.00000000       4.35393939       0.00000000       0.00000000      -0.30142707
2
Properties=species:S:1:pos:R:3:forces:R:3 energy=-1.8528109913809796 pbc="F F F"
Si       0.00000000       0.00000000       0.00000000       0.00000000       0.00000000       0.27194905
Si       0.00000000       0.00000000       4.41272727       0.00000000       0.00000000      -0.27194905
2
Properties=species:S:1:pos:R:3:forces:R:3 energy=-1.837575621926505 pbc="F F F"
Si       0.00000000       0.00000000       0.00000000       0.00000000       0.00000000       0.24721819
Si       0.00000000       0.00000000       4.47151515       0.00000000       0.00000000      -0.24721819
2
Properties=species:S:1:pos:R:3:forces:R:3 energy=-1.8236377792459497 pbc="F F F"
Si       0.00000000       0.00000000       0.00000000       0.00000000       0.00000000       0.22785851
Si       0.00000000       0.00000000       4.53030303       0.00000000       0.00000000      -0.22785851
2
Properties=species:S:1:pos:R:3:forces:R:3 energy=-1.8106814713834547 pbc="F F F"
Si       0.00000000       0.00000000       0.00000000       0.00000000       0.00000000       0.21376507
Si       0.00000000       0.00000000       4.58909091       0.00000000       0.00000000      -0.21376507
2
Properties=species:S:1:pos:R:3:forces:R:3 energy=-1.7984182478087123 pbc="F F F"
Si       0.00000000       0.00000000       0.00000000       0.00000000       0.00000000       0.20405686
Si       0.00000000       0.00000000       4.64787879       0.00000000       0.00000000      -0.20405686
2
Properties=species:S:1:pos:R:3:forces:R:3 energy=-1.7866329135956622 pbc="F F F"
Si       0.00000000       0.00000000       0.00000000       0.00000000       0.00000000       0.19720346
Si       0.00000000       0.00000000       4.70666667       0.00000000       0.00000000      -0.19720346
2
Properties=species:S:1:pos:R:3:forces:R:3 energy=-1.7752125943143882 pbc="F F F"
Si       0.00000000       0.00000000       0.00000000       0.00000000       0.00000000       0.19133936
Si       0.00000000       0.00000000       4.76545455       0.00000000       0.00000000      -0.19133936
2
Properties=species:S:1:pos:R:3:forces:R:3 energy=-1.7641513562670508 pbc="F F F"
Si       0.00000000       0.00000000       0.00000000       0.00000000       0.00000000       0.18470784
Si       0.00000000       0.00000000       4.82424242       0.00000000       0.00000000      -0.18470784
2
Properties=species:S:1:pos:R:3:forces:R:3 energy=-1.7535346502595783 pbc="F F F"
Si       0.00000000       0.00000000       0.00000000       0.00000000       0.00000000       0.17613406
Si       0.00000000       0.00000000       4.88303030       0.00000000       0.00000000      -0.17613406
2
Properties=species:S:1:pos:R:3:forces:R:3 energy=-1.7434861600976366 pbc="F F F"
Si       0.00000000       0.00000000       0.00000000       0.00000000       0.00000000       0.16536620
Si       0.00000000       0.00000000       4.94181818       0.00000000       0.00000000      -0.16536620
2
Properties=species:S:1:pos:R:3:forces:R:3 energy=-1.7341198594454277 pbc="F F F"
Si       0.00000000       0.00000000       0.00000000       0.00000000       0.00000000       0.15313007
Si       0.00000000       0.00000000       5.00060606       0.00000000       0.00000000      -0.15313007
2
Properties=species:S:1:pos:R:3:forces:R:3 energy=-1.7254831327395037 pbc="F F F"
Si       0.00000000       0.00000000       0.00000000       0.00000000       0.00000000       0.14080487
Si       0.00000000       0.00000000       5.05939394       0.00000000       0.00000000      -0.14080487
2
Properties=species:S:1:pos:R:3:forces:R:3 energy=-1.7175385155766223 pbc="F F F"
Si       0.00000000       0.00000000       0.00000000       0.00000000       0.00000000       0.12977646
Si       0.00000000       0.00000000       5.11818182       0.00000000       0.00000000      -0.12977646
2
Properties=species:S:1:pos:R:3:forces:R:3 energy=-1.7101858466347994 pbc="F F F"
Si       0.00000000       0.00000000       0.00000000       0.00000000       0.00000000       0.12069872
Si       0.00000000       0.00000000       5.17696970       0.00000000       0.00000000      -0.12069872
2
Properties=species:S:1:pos:R:3:forces:R:3 energy=-1.703320870710477 pbc="F F F"
Si       0.00000000       0.00000000       0.00000000       0.00000000       0.00000000       0.11296542
Si       0.00000000       0.00000000       5.23575758       0.00000000       0.00000000      -0.11296542
2
Properties=species:S:1:pos:R:3:forces:R:3 energy=-1.6969115374155699 pbc="F F F"
Si       0.00000000       0.00000000       0.00000000       0.00000000       0.00000000       0.10487235
Si       0.00000000       0.00000000       5.29454545       0.00000000       0.00000000      -0.10487235
2
Properties=species:S:1:pos:R:3:forces:R:3 energy=-1.6910240648303179 pbc="F F F"
Si       0.00000000       0.00000000       0.00000000       0.00000000       0.00000000       0.09516579
Si       0.00000000       0.00000000       5.35333333       0.00000000       0.00000000      -0.09516579
2
Properties=species:S:1:pos:R:3:forces:R:3 energy=-1.6857203113923611 pbc="F F F"
Si       0.00000000       0.00000000       0.00000000       0.00000000       0.00000000       0.08562601
Si       0.00000000       0.00000000       5.41212121       0.00000000       0.00000000      -0.08562601
2
Properties=species:S:1:pos:R:3:forces:R:3 energy=-1.6808863925361426 pbc="F F F"
Si       0.00000000       0.00000000       0.00000000       0.00000000       0.00000000       0.07936657
Si       0.00000000       0.00000000       5.47090909       0.00000000       0.00000000      -0.07936657
2
Properties=species:S:1:pos:R:3:forces:R:3 energy=-1.6763881628686146 pbc="F F F"
Si       0.00000000       0.00000000       0.00000000       0.00000000       0.00000000       0.07305999
Si       0.00000000       0.00000000       5.52969697       0.00000000       0.00000000      -0.07305999
2
Properties=species:S:1:pos:R:3:forces:R:3 energy=-1.672390805979103 pbc="F F F"
Si       0.00000000       0.00000000       0.00000000       0.00000000       0.00000000       0.06234181
Si       0.00000000       0.00000000       5.58848485       0.00000000       0.00000000      -0.06234181
2
Properties=species:S:1:pos:R:3:forces:R:3 energy=-1.669054202811436 pbc="F F F"
Si       0.00000000       0.00000000       0.00000000       0.00000000       0.00000000       0.05191204
Si       0.00000000       0.00000000       5.64727273       0.00000000       0.00000000      -0.05191204
2
Properties=species:S:1:pos:R:3:forces:R:3 energy=-1.6661410527153235 pbc="F F F"
Si       0.00000000       0.00000000       0.00000000       0.00000000       0.00000000       0.04861911
Si       0.00000000       0.00000000       5.70606061       0.00000000       0.00000000      -0.04861911
2
Properties=species:S:1:pos:R:3:forces:R:3 energy=-1.6632432803976163 pbc="F F F"
Si       0.00000000       0.00000000       0.00000000       0.00000000       0.00000000       0.04948652
Si       0.00000000       0.00000000       5.76484848       0.00000000       0.00000000      -0.04948652
2
Properties=species:S:1:pos:R:3:forces:R:3 energy=-1.6604858839977654 pbc="F F F"
Si       0.00000000       0.00000000       0.00000000       0.00000000       0.00000000       0.04250737
Si       0.00000000       0.00000000       5.82363636       0.00000000       0.00000000      -0.04250737
2
Properties=species:S:1:pos:R:3:forces:R:3 energy=-1.6584387934894251 pbc="F F F"
Si       0.00000000       0.00000000       0.00000000       0.00000000       0.00000000       0.02648076
Si       0.00000000       0.00000000       5.88242424       0.00000000       0.00000000      -0.02648076
2
Properties=species:S:1:pos:R:3:forces:R:3 energy=-1.6573513422810673 pbc="F F F"
Si       0.00000000       0.00000000       0.00000000       0.00000000       0.00000000       0.01137136
Si       0.00000000       0.00000000       5.94121212       0.00000000       0.00000000      -0.01137136
2
Properties=species:S:1:pos:R:3:forces:R:3 energy=-1.6569188597827966 pbc="F F F"
Si       0.00000000       0.00000000       0.00000000       0.00000000       0.00000000       0.00526128
Si       0.00000000       0.00000000       6.00000000       0.00000000       0.00000000      -0.00526128
