2
Properties=species:S:1:pos:R:3:forces:R:3 energy=7069.027004862887 pbc="F F F"
Tc       0.00000000       0.00000000       0.00000000       0.00000000       0.00000000 -114828.71093750
Tc       0.00000000       0.00000000       0.18000000       0.00000000       0.00000000  114828.71093750
2
Properties=species:S:1:pos:R:3:forces:R:3 energy=2966.1834990035127 pbc="F F F"
Tc       0.00000000       0.00000000       0.00000000       0.00000000       0.00000000  -40063.19921875
Tc       0.00000000       0.00000000       0.23878788       0.00000000       0.00000000   40063.19921875
2
Properties=species:S:1:pos:R:3:forces:R:3 energy=1421.8824736128875 pbc="F F F"
Tc       0.00000000       0.00000000       0.00000000       0.00000000       0.00000000  -16475.86718750
Tc       0.00000000       0.00000000       0.29757576       0.00000000       0.00000000   16475.86718750
2
Properties=species:S:1:pos:R:3:forces:R:3 energy=755.6405912950045 pbc="F F F"
Tc       0.00000000       0.00000000       0.00000000       0.00000000       0.00000000   -7508.39794922
Tc       0.00000000       0.00000000       0.35636364       0.00000000       0.00000000    7508.39794922
2
Properties=species:S:1:pos:R:3:forces:R:3 energy=441.9263884204807 pbc="F F F"
Tc       0.00000000       0.00000000       0.00000000       0.00000000       0.00000000   -3671.55249023
Tc       0.00000000       0.00000000       0.41515152       0.00000000       0.00000000    3671.55249023
2
Properties=species:S:1:pos:R:3:forces:R:3 energy=284.60476368996393 pbc="F F F"
Tc       0.00000000       0.00000000       0.00000000       0.00000000       0.00000000   -1897.33422852
Tc       0.00000000       0.00000000       0.47393939       0.00000000       0.00000000    1897.33422852
2
Properties=species:S:1:pos:R:3:forces:R:3 energy=201.39208672602464 pbc="F F F"
Tc       0.00000000       0.00000000       0.00000000       0.00000000       0.00000000   -1033.67407227
Tc       0.00000000       0.00000000       0.53272727       0.00000000       0.00000000    1033.67407227
2
Properties=species:S:1:pos:R:3:forces:R:3 energy=154.76615601591956 pbc="F F F"
Tc       0.00000000       0.00000000       0.00000000       0.00000000       0.00000000    -601.64465332
Tc       0.00000000       0.00000000       0.59151515       0.00000000       0.00000000     601.64465332
2
Properties=species:S:1:pos:R:3:forces:R:3 energy=126.48950664852786 pbc="F F F"
Tc       0.00000000       0.00000000       0.00000000       0.00000000       0.00000000    -386.19744873
Tc       0.00000000       0.00000000       0.65030303       0.00000000       0.00000000     386.19744873
2
Properties=species:S:1:pos:R:3:forces:R:3 energy=106.72509490599202 pbc="F F F"
Tc       0.00000000       0.00000000       0.00000000       0.00000000       0.00000000    -304.42800903
Tc       0.00000000       0.00000000       0.70909091       0.00000000       0.00000000     304.42800903
2
Properties=species:S:1:pos:R:3:forces:R:3 energy=89.76662960225285 pbc="F F F"
Tc       0.00000000       0.00000000       0.00000000       0.00000000       0.00000000    -278.10781860
Tc       0.00000000       0.00000000       0.76787879       0.00000000       0.00000000     278.10781860
2
Properties=species:S:1:pos:R:3:forces:R:3 energy=73.72427923235547 pbc="F F F"
Tc       0.00000000       0.00000000       0.00000000       0.00000000       0.00000000    -264.31182861
Tc       0.00000000       0.00000000       0.82666667       0.00000000       0.00000000     264.31182861
2
Properties=species:S:1:pos:R:3:forces:R:3 energy=59.058081084765995 pbc="F F F"
Tc       0.00000000       0.00000000       0.00000000       0.00000000       0.00000000    -232.83598328
Tc       0.00000000       0.00000000       0.88545455       0.00000000       0.00000000     232.83598328
2
Properties=species:S:1:pos:R:3:forces:R:3 energy=46.34143760861909 pbc="F F F"
Tc       0.00000000       0.00000000       0.00000000       0.00000000       0.00000000    -201.72061157
Tc       0.00000000       0.00000000       0.94424242       0.00000000       0.00000000     201.72061157
2
Properties=species:S:1:pos:R:3:forces:R:3 energy=35.140453775194146 pbc="F F F"
Tc       0.00000000       0.00000000       0.00000000       0.00000000       0.00000000    -179.98179626
Tc       0.00000000       0.00000000       1.00303030       0.00000000       0.00000000     179.98179626
2
Properties=species:S:1:pos:R:3:forces:R:3 energy=25.20215419031606 pbc="F F F"
Tc       0.00000000       0.00000000       0.00000000       0.00000000       0.00000000    -157.04812622
Tc       0.00000000       0.00000000       1.06181818       0.00000000       0.00000000     157.04812622
2
Properties=species:S:1:pos:R:3:forces:R:3 energy=16.831073886471454 pbc="F F F"
Tc       0.00000000       0.00000000       0.00000000       0.00000000       0.00000000    -127.15302277
Tc       0.00000000       0.00000000       1.12060606       0.00000000       0.00000000     127.15302277
2
Properties=species:S:1:pos:R:3:forces:R:3 energy=10.224402315092256 pbc="F F F"
Tc       0.00000000       0.00000000       0.00000000       0.00000000       0.00000000     -97.96916962
Tc       0.00000000       0.00000000       1.17939394       0.00000000       0.00000000      97.96916962
2
Properties=species:S:1:pos:R:3:forces:R:3 energy=5.312043122795305 pbc="F F F"
Tc       0.00000000       0.00000000       0.00000000       0.00000000       0.00000000     -69.30120087
Tc       0.00000000       0.00000000       1.23818182       0.00000000       0.00000000      69.30120087
2
Properties=species:S:1:pos:R:3:forces:R:3 energy=1.9160361101725847 pbc="F F F"
Tc       0.00000000       0.00000000       0.00000000       0.00000000       0.00000000     -48.73312378
Tc       0.00000000       0.00000000       1.29696970       0.00000000       0.00000000      48.73312378
2
Properties=species:S:1:pos:R:3:forces:R:3 energy=-0.6923635227153142 pbc="F F F"
Tc       0.00000000       0.00000000       0.00000000       0.00000000       0.00000000     -41.47202301
Tc       0.00000000       0.00000000       1.35575758       0.00000000       0.00000000      41.47202301
2
Properties=species:S:1:pos:R:3:forces:R:3 energy=-3.021400030572308 pbc="F F F"
Tc       0.00000000       0.00000000       0.00000000       0.00000000       0.00000000     -37.61807632
Tc       0.00000000       0.00000000       1.41454545       0.00000000       0.00000000      37.61807632
2
Properties=species:S:1:pos:R:3:forces:R:3 energy=-5.065203771392303 pbc="F F F"
Tc       0.00000000       0.00000000       0.00000000       0.00000000       0.00000000     -31.43161392
Tc       0.00000000       0.00000000       1.47333333       0.00000000       0.00000000      31.43161392
2
Properties=species:S:1:pos:R:3:forces:R:3 energy=-6.6914325603325855 pbc="F F F"
Tc       0.00000000       0.00000000       0.00000000       0.00000000       0.00000000     -24.05631447
Tc       0.00000000       0.00000000       1.53212121       0.00000000       0.00000000      24.05631447
2
Properties=species:S:1:pos:R:3:forces:R:3 energy=-7.947095021167243 pbc="F F F"
Tc       0.00000000       0.00000000       0.00000000       0.00000000       0.00000000     -19.23563766
Tc       0.00000000       0.00000000       1.59090909       0.00000000       0.00000000      19.23563766
2
Properties=species:S:1:pos:R:3:forces:R:3 energy=-9.00634885106416 pbc="F F F"
Tc       0.00000000       0.00000000       0.00000000       0.00000000       0.00000000     -17.04416275
Tc       0.00000000       0.00000000       1.64969697       0.00000000       0.00000000      17.04416275
2
Properties=species:S:1:pos:R:3:forces:R:3 energy=-9.953702521409193 pbc="F F F"
Tc       0.00000000       0.00000000       0.00000000       0.00000000       0.00000000     -15.04225349
Tc       0.00000000       0.00000000       1.70848485       0.00000000       0.00000000      15.04225349
2
Properties=species:S:1:pos:R:3:forces:R:3 energy=-10.75241477715231 pbc="F F F"
Tc       0.00000000       0.00000000       0.00000000       0.00000000       0.00000000     -11.95887470
Tc       0.00000000       0.00000000       1.76727273       0.00000000       0.00000000      11.95887470
2
Properties=species:S:1:pos:R:3:forces:R:3 energy=-11.348164902766671 pbc="F F F"
Tc       0.00000000       0.00000000       0.00000000       0.00000000       0.00000000      -8.28540897
Tc       0.00000000       0.00000000       1.82606061       0.00000000       0.00000000       8.28540897
2
Properties=species:S:1:pos:R:3:forces:R:3 energy=-11.73018365941098 pbc="F F F"
Tc       0.00000000       0.00000000       0.00000000       0.00000000       0.00000000      -4.77764273
Tc       0.00000000       0.00000000       1.88484848       0.00000000       0.00000000       4.77764273
2
Properties=species:S:1:pos:R:3:forces:R:3 energy=-11.919612989649202 pbc="F F F"
Tc       0.00000000       0.00000000       0.00000000       0.00000000       0.00000000      -1.75801182
Tc       0.00000000       0.00000000       1.94363636       0.00000000       0.00000000       1.75801182
2
Properties=species:S:1:pos:R:3:forces:R:3 energy=-11.948020916859448 pbc="F F F"
Tc       0.00000000       0.00000000       0.00000000       0.00000000       0.00000000       0.69467878
Tc       0.00000000       0.00000000       2.00242424       0.00000000       0.00000000      -0.69467878
2
Properties=species:S:1:pos:R:3:forces:R:3 energy=-11.849350968779659 pbc="F F F"
Tc       0.00000000       0.00000000       0.00000000       0.00000000       0.00000000       2.56562829
Tc       0.00000000       0.00000000       2.06121212       0.00000000       0.00000000      -2.56562829
2
Properties=species:S:1:pos:R:3:forces:R:3 energy=-11.657489078566073 pbc="F F F"
Tc       0.00000000       0.00000000       0.00000000       0.00000000       0.00000000       3.86967754
Tc       0.00000000       0.00000000       2.12000000       0.00000000       0.00000000      -3.86967754
2
Properties=species:S:1:pos:R:3:forces:R:3 energy=-11.404732877166934 pbc="F F F"
Tc       0.00000000       0.00000000       0.00000000       0.00000000       0.00000000       4.64593172
Tc       0.00000000       0.00000000       2.17878788       0.00000000       0.00000000      -4.64593172
2
Properties=species:S:1:pos:R:3:forces:R:3 energy=-11.12026917262741 pbc="F F F"
Tc       0.00000000       0.00000000       0.00000000       0.00000000       0.00000000       4.96306133
Tc       0.00000000       0.00000000       2.23757576       0.00000000       0.00000000      -4.96306133
2
Properties=species:S:1:pos:R:3:forces:R:3 energy=-10.828098149243516 pbc="F F F"
Tc       0.00000000       0.00000000       0.00000000       0.00000000       0.00000000       4.92890358
Tc       0.00000000       0.00000000       2.29636364       0.00000000       0.00000000      -4.92890358
2
Properties=species:S:1:pos:R:3:forces:R:3 energy=-10.545027764492733 pbc="F F F"
Tc       0.00000000       0.00000000       0.00000000       0.00000000       0.00000000       4.67585945
Tc       0.00000000       0.00000000       2.35515152       0.00000000       0.00000000      -4.67585945
2
Properties=species:S:1:pos:R:3:forces:R:3 energy=-10.280231908434752 pbc="F F F"
Tc       0.00000000       0.00000000       0.00000000       0.00000000       0.00000000       4.32440805
Tc       0.00000000       0.00000000       2.41393939       0.00000000       0.00000000      -4.32440805
2
Properties=species:S:1:pos:R:3:forces:R:3 energy=-10.036909227903799 pbc="F F F"
Tc       0.00000000       0.00000000       0.00000000       0.00000000       0.00000000       3.95469785
Tc       0.00000000       0.00000000       2.47272727       0.00000000       0.00000000      -3.95469785
2
Properties=species:S:1:pos:R:3:forces:R:3 energy=-9.81491860964512 pbc="F F F"
Tc       0.00000000       0.00000000       0.00000000       0.00000000       0.00000000       3.60089850
Tc       0.00000000       0.00000000       2.53151515       0.00000000       0.00000000      -3.60089850
2
Properties=species:S:1:pos:R:3:forces:R:3 energy=-9.613219195033444 pbc="F F F"
Tc       0.00000000       0.00000000       0.00000000       0.00000000       0.00000000       3.26237822
Tc       0.00000000       0.00000000       2.59030303       0.00000000       0.00000000      -3.26237822
2
Properties=species:S:1:pos:R:3:forces:R:3 energy=-9.431388690775584 pbc="F F F"
Tc       0.00000000       0.00000000       0.00000000       0.00000000       0.00000000       2.92163563
Tc       0.00000000       0.00000000       2.64909091       0.00000000       0.00000000      -2.92163563
2
Properties=species:S:1:pos:R:3:forces:R:3 energy=-9.270069350535781 pbc="F F F"
Tc       0.00000000       0.00000000       0.00000000       0.00000000       0.00000000       2.56306648
Tc       0.00000000       0.00000000       2.70787879       0.00000000       0.00000000      -2.56306648
2
Properties=species:S:1:pos:R:3:forces:R:3 energy=-9.130312022079867 pbc="F F F"
Tc       0.00000000       0.00000000       0.00000000       0.00000000       0.00000000       2.19160628
Tc       0.00000000       0.00000000       2.76666667       0.00000000       0.00000000      -2.19160628
2
Properties=species:S:1:pos:R:3:forces:R:3 energy=-9.011841814631756 pbc="F F F"
Tc       0.00000000       0.00000000       0.00000000       0.00000000       0.00000000       1.84889984
Tc       0.00000000       0.00000000       2.82545455       0.00000000       0.00000000      -1.84889984
2
Properties=species:S:1:pos:R:3:forces:R:3 energy=-8.911229428705782 pbc="F F F"
Tc       0.00000000       0.00000000       0.00000000       0.00000000       0.00000000       1.59037793
Tc       0.00000000       0.00000000       2.88424242       0.00000000       0.00000000      -1.59037793
2
Properties=species:S:1:pos:R:3:forces:R:3 energy=-8.823142044485634 pbc="F F F"
Tc       0.00000000       0.00000000       0.00000000       0.00000000       0.00000000       1.41811550
Tc       0.00000000       0.00000000       2.94303030       0.00000000       0.00000000      -1.41811550
2
Properties=species:S:1:pos:R:3:forces:R:3 energy=-8.743299411971831 pbc="F F F"
Tc       0.00000000       0.00000000       0.00000000       0.00000000       0.00000000       1.30845797
Tc       0.00000000       0.00000000       3.00181818       0.00000000       0.00000000      -1.30845797
2
Properties=species:S:1:pos:R:3:forces:R:3 energy=-8.667880184720214 pbc="F F F"
Tc       0.00000000       0.00000000       0.00000000       0.00000000       0.00000000       1.27150810
Tc       0.00000000       0.00000000       3.06060606       0.00000000       0.00000000      -1.27150810
2
Properties=species:S:1:pos:R:3:forces:R:3 energy=-8.591969246532724 pbc="F F F"
Tc       0.00000000       0.00000000       0.00000000       0.00000000       0.00000000       1.32716799
Tc       0.00000000       0.00000000       3.11939394       0.00000000       0.00000000      -1.32716799
2
Properties=species:S:1:pos:R:3:forces:R:3 energy=-8.51006098957193 pbc="F F F"
Tc       0.00000000       0.00000000       0.00000000       0.00000000       0.00000000       1.47234559
Tc       0.00000000       0.00000000       3.17818182       0.00000000       0.00000000      -1.47234559
2
Properties=species:S:1:pos:R:3:forces:R:3 energy=-8.417759159189856 pbc="F F F"
Tc       0.00000000       0.00000000       0.00000000       0.00000000       0.00000000       1.67279637
Tc       0.00000000       0.00000000       3.23696970       0.00000000       0.00000000      -1.67279637
2
Properties=species:S:1:pos:R:3:forces:R:3 energy=-8.313380862734862 pbc="F F F"
Tc       0.00000000       0.00000000       0.00000000       0.00000000       0.00000000       1.87327456
Tc       0.00000000       0.00000000       3.29575758       0.00000000       0.00000000      -1.87327456
2
Properties=species:S:1:pos:R:3:forces:R:3 energy=-8.198632778538096 pbc="F F F"
Tc       0.00000000       0.00000000       0.00000000       0.00000000       0.00000000       2.01694989
Tc       0.00000000       0.00000000       3.35454545       0.00000000       0.00000000      -2.01694989
2
Properties=species:S:1:pos:R:3:forces:R:3 energy=-8.078150884866638 pbc="F F F"
Tc       0.00000000       0.00000000       0.00000000       0.00000000       0.00000000       2.06383133
Tc       0.00000000       0.00000000       3.41333333       0.00000000       0.00000000      -2.06383133
2
Properties=species:S:1:pos:R:3:forces:R:3 energy=-7.958130654216957 pbc="F F F"
Tc       0.00000000       0.00000000       0.00000000       0.00000000       0.00000000       2.00171590
Tc       0.00000000       0.00000000       3.47212121       0.00000000       0.00000000      -2.00171590
2
Properties=species:S:1:pos:R:3:forces:R:3 energy=-7.844618109642065 pbc="F F F"
Tc       0.00000000       0.00000000       0.00000000       0.00000000       0.00000000       1.84746289
Tc       0.00000000       0.00000000       3.53090909       0.00000000       0.00000000      -1.84746289
2
Properties=species:S:1:pos:R:3:forces:R:3 energy=-7.741984590417142 pbc="F F F"
Tc       0.00000000       0.00000000       0.00000000       0.00000000       0.00000000       1.63879073
Tc       0.00000000       0.00000000       3.58969697       0.00000000       0.00000000      -1.63879073
2
Properties=species:S:1:pos:R:3:forces:R:3 energy=-7.652129974491277 pbc="F F F"
Tc       0.00000000       0.00000000       0.00000000       0.00000000       0.00000000       1.41990042
Tc       0.00000000       0.00000000       3.64848485       0.00000000       0.00000000      -1.41990042
2
Properties=species:S:1:pos:R:3:forces:R:3 energy=-7.574514772296885 pbc="F F F"
Tc       0.00000000       0.00000000       0.00000000       0.00000000       0.00000000       1.22719896
Tc       0.00000000       0.00000000       3.70727273       0.00000000       0.00000000      -1.22719896
2
Properties=species:S:1:pos:R:3:forces:R:3 energy=-7.506919669658091 pbc="F F F"
Tc       0.00000000       0.00000000       0.00000000       0.00000000       0.00000000       1.08086360
Tc       0.00000000       0.00000000       3.76606061       0.00000000       0.00000000      -1.08086360
2
Properties=species:S:1:pos:R:3:forces:R:3 energy=-7.446458572333073 pbc="F F F"
Tc       0.00000000       0.00000000       0.00000000       0.00000000       0.00000000       0.98373342
Tc       0.00000000       0.00000000       3.82484848       0.00000000       0.00000000      -0.98373342
2
Properties=species:S:1:pos:R:3:forces:R:3 energy=-7.390491188307651 pbc="F F F"
Tc       0.00000000       0.00000000       0.00000000       0.00000000       0.00000000       0.92545158
Tc       0.00000000       0.00000000       3.88363636       0.00000000       0.00000000      -0.92545158
2
Properties=species:S:1:pos:R:3:forces:R:3 energy=-7.337223365777463 pbc="F F F"
Tc       0.00000000       0.00000000       0.00000000       0.00000000       0.00000000       0.88879800
Tc       0.00000000       0.00000000       3.94242424       0.00000000       0.00000000      -0.88879800
2
Properties=species:S:1:pos:R:3:forces:R:3 energy=-7.285927328558614 pbc="F F F"
Tc       0.00000000       0.00000000       0.00000000       0.00000000       0.00000000       0.85550970
Tc       0.00000000       0.00000000       4.00121212       0.00000000       0.00000000      -0.85550970
2
Properties=species:S:1:pos:R:3:forces:R:3 energy=-7.236873125578492 pbc="F F F"
Tc       0.00000000       0.00000000       0.00000000       0.00000000       0.00000000       0.81033587
Tc       0.00000000       0.00000000       4.06000000       0.00000000       0.00000000      -0.81033587
2
Properties=species:S:1:pos:R:3:forces:R:3 energy=-7.191084948080991 pbc="F F F"
Tc       0.00000000       0.00000000       0.00000000       0.00000000       0.00000000       0.74322534
Tc       0.00000000       0.00000000       4.11878788       0.00000000       0.00000000      -0.74322534
2
Properties=species:S:1:pos:R:3:forces:R:3 energy=-7.150001100383204 pbc="F F F"
Tc       0.00000000       0.00000000       0.00000000       0.00000000       0.00000000       0.65009558
Tc       0.00000000       0.00000000       4.17757576       0.00000000       0.00000000      -0.65009558
2
Properties=species:S:1:pos:R:3:forces:R:3 energy=-7.115126182846476 pbc="F F F"
Tc       0.00000000       0.00000000       0.00000000       0.00000000       0.00000000       0.53278267
Tc       0.00000000       0.00000000       4.23636364       0.00000000       0.00000000      -0.53278267
2
Properties=species:S:1:pos:R:3:forces:R:3 energy=-7.087696339520056 pbc="F F F"
Tc       0.00000000       0.00000000       0.00000000       0.00000000       0.00000000       0.39835149
Tc       0.00000000       0.00000000       4.29515152       0.00000000       0.00000000      -0.39835149
2
Properties=species:S:1:pos:R:3:forces:R:3 energy=-7.068410729128939 pbc="F F F"
Tc       0.00000000       0.00000000       0.00000000       0.00000000       0.00000000       0.25781593
Tc       0.00000000       0.00000000       4.35393939       0.00000000       0.00000000      -0.25781593
2
Properties=species:S:1:pos:R:3:forces:R:3 energy=-7.0572480204595305 pbc="F F F"
Tc       0.00000000       0.00000000       0.00000000       0.00000000       0.00000000       0.12422359
Tc       0.00000000       0.00000000       4.41272727       0.00000000       0.00000000      -0.12422359
2
Properties=species:S:1:pos:R:3:forces:R:3 energy=-7.053415777928785 pbc="F F F"
Tc       0.00000000       0.00000000       0.00000000       0.00000000       0.00000000       0.01040144
Tc       0.00000000       0.00000000       4.47151515       0.00000000       0.00000000      -0.01040144
2
Properties=species:S:1:pos:R:3:forces:R:3 energy=-7.055432268499159 pbc="F F F"
Tc       0.00000000       0.00000000       0.00000000       0.00000000       0.00000000      -0.07331957
Tc       0.00000000       0.00000000       4.53030303       0.00000000       0.00000000       0.07331957
2
Properties=species:S:1:pos:R:3:forces:R:3 energy=-7.061323186348682 pbc="F F F"
Tc       0.00000000       0.00000000       0.00000000       0.00000000       0.00000000      -0.12080700
Tc       0.00000000       0.00000000       4.58909091       0.00000000       0.00000000       0.12080700
2
Properties=species:S:1:pos:R:3:forces:R:3 energy=-7.068900279490653 pbc="F F F"
Tc       0.00000000       0.00000000       0.00000000       0.00000000       0.00000000      -0.13089640
Tc       0.00000000       0.00000000       4.64787879       0.00000000       0.00000000       0.13089640
2
Properties=species:S:1:pos:R:3:forces:R:3 energy=-7.076046517401173 pbc="F F F"
Tc       0.00000000       0.00000000       0.00000000       0.00000000       0.00000000      -0.10705933
Tc       0.00000000       0.00000000       4.70666667       0.00000000       0.00000000       0.10705933
2
Properties=species:S:1:pos:R:3:forces:R:3 energy=-7.080957403963256 pbc="F F F"
Tc       0.00000000       0.00000000       0.00000000       0.00000000       0.00000000      -0.05622227
Tc       0.00000000       0.00000000       4.76545455       0.00000000       0.00000000       0.05622227
2
Properties=species:S:1:pos:R:3:forces:R:3 energy=-7.082299401444949 pbc="F F F"
Tc       0.00000000       0.00000000       0.00000000       0.00000000       0.00000000       0.01284800
Tc       0.00000000       0.00000000       4.82424242       0.00000000       0.00000000      -0.01284800
2
Properties=species:S:1:pos:R:3:forces:R:3 energy=-7.079268811216823 pbc="F F F"
Tc       0.00000000       0.00000000       0.00000000       0.00000000       0.00000000       0.09102637
Tc       0.00000000       0.00000000       4.88303030       0.00000000       0.00000000      -0.09102637
2
Properties=species:S:1:pos:R:3:forces:R:3 energy=-7.071583025956373 pbc="F F F"
Tc       0.00000000       0.00000000       0.00000000       0.00000000       0.00000000       0.16991508
Tc       0.00000000       0.00000000       4.94181818       0.00000000       0.00000000      -0.16991508
2
Properties=species:S:1:pos:R:3:forces:R:3 energy=-7.059419062004116 pbc="F F F"
Tc       0.00000000       0.00000000       0.00000000       0.00000000       0.00000000       0.24229121
Tc       0.00000000       0.00000000       5.00060606       0.00000000       0.00000000      -0.24229121
2
Properties=species:S:1:pos:R:3:forces:R:3 energy=-7.043336368764768 pbc="F F F"
Tc       0.00000000       0.00000000       0.00000000       0.00000000       0.00000000       0.30240080
Tc       0.00000000       0.00000000       5.05939394       0.00000000       0.00000000      -0.30240080
2
Properties=species:S:1:pos:R:3:forces:R:3 energy=-7.024187946926484 pbc="F F F"
Tc       0.00000000       0.00000000       0.00000000       0.00000000       0.00000000       0.34603587
Tc       0.00000000       0.00000000       5.11818182       0.00000000       0.00000000      -0.34603587
2
Properties=species:S:1:pos:R:3:forces:R:3 energy=-7.003029396108707 pbc="F F F"
Tc       0.00000000       0.00000000       0.00000000       0.00000000       0.00000000       0.37045854
Tc       0.00000000       0.00000000       5.17696970       0.00000000       0.00000000      -0.37045854
2
Properties=species:S:1:pos:R:3:forces:R:3 energy=-6.981041288607868 pbc="F F F"
Tc       0.00000000       0.00000000       0.00000000       0.00000000       0.00000000       0.37409791
Tc       0.00000000       0.00000000       5.23575758       0.00000000       0.00000000      -0.37409791
2
Properties=species:S:1:pos:R:3:forces:R:3 energy=-6.959447595397284 pbc="F F F"
Tc       0.00000000       0.00000000       0.00000000       0.00000000       0.00000000       0.35745883
Tc       0.00000000       0.00000000       5.29454545       0.00000000       0.00000000      -0.35745883
2
Properties=species:S:1:pos:R:3:forces:R:3 energy=-6.9392831606563625 pbc="F F F"
Tc       0.00000000       0.00000000       0.00000000       0.00000000       0.00000000       0.32729530
Tc       0.00000000       0.00000000       5.35333333       0.00000000       0.00000000      -0.32729530
2
Properties=species:S:1:pos:R:3:forces:R:3 energy=-6.9209521062125825 pbc="F F F"
Tc       0.00000000       0.00000000       0.00000000       0.00000000       0.00000000       0.29738081
Tc       0.00000000       0.00000000       5.41212121       0.00000000       0.00000000      -0.29738081
2
Properties=species:S:1:pos:R:3:forces:R:3 energy=-6.904181800084708 pbc="F F F"
Tc       0.00000000       0.00000000       0.00000000       0.00000000       0.00000000       0.27379304
Tc       0.00000000       0.00000000       5.47090909       0.00000000       0.00000000      -0.27379304
2
Properties=species:S:1:pos:R:3:forces:R:3 energy=-6.888809179963594 pbc="F F F"
Tc       0.00000000       0.00000000       0.00000000       0.00000000       0.00000000       0.24782261
Tc       0.00000000       0.00000000       5.52969697       0.00000000       0.00000000      -0.24782261
2
Properties=species:S:1:pos:R:3:forces:R:3 energy=-6.875238065389483 pbc="F F F"
Tc       0.00000000       0.00000000       0.00000000       0.00000000       0.00000000       0.21249427
Tc       0.00000000       0.00000000       5.58848485       0.00000000       0.00000000      -0.21249427
2
Properties=species:S:1:pos:R:3:forces:R:3 energy=-6.863865791915564 pbc="F F F"
Tc       0.00000000       0.00000000       0.00000000       0.00000000       0.00000000       0.17543420
Tc       0.00000000       0.00000000       5.64727273       0.00000000       0.00000000      -0.17543420
2
Properties=species:S:1:pos:R:3:forces:R:3 energy=-6.854334898383472 pbc="F F F"
Tc       0.00000000       0.00000000       0.00000000       0.00000000       0.00000000       0.15223427
Tc       0.00000000       0.00000000       5.70606061       0.00000000       0.00000000      -0.15223427
2
Properties=species:S:1:pos:R:3:forces:R:3 energy=-6.845573380817372 pbc="F F F"
Tc       0.00000000       0.00000000       0.00000000       0.00000000       0.00000000       0.14736159
Tc       0.00000000       0.00000000       5.76484848       0.00000000       0.00000000      -0.14736159
2
Properties=species:S:1:pos:R:3:forces:R:3 energy=-6.8371165832289815 pbc="F F F"
Tc       0.00000000       0.00000000       0.00000000       0.00000000       0.00000000       0.13652331
Tc       0.00000000       0.00000000       5.82363636       0.00000000       0.00000000      -0.13652331
2
Properties=species:S:1:pos:R:3:forces:R:3 energy=-6.83022244845461 pbc="F F F"
Tc       0.00000000       0.00000000       0.00000000       0.00000000       0.00000000       0.09349918
Tc       0.00000000       0.00000000       5.88242424       0.00000000       0.00000000      -0.09349918
2
Properties=species:S:1:pos:R:3:forces:R:3 energy=-6.826318128413555 pbc="F F F"
Tc       0.00000000       0.00000000       0.00000000       0.00000000       0.00000000       0.04101845
Tc       0.00000000       0.00000000       5.94121212       0.00000000       0.00000000      -0.04101845
2
Properties=species:S:1:pos:R:3:forces:R:3 energy=-6.824789392385247 pbc="F F F"
Tc       0.00000000       0.00000000       0.00000000       0.00000000       0.00000000       0.01818999
Tc       0.00000000       0.00000000       6.00000000       0.00000000       0.00000000      -0.01818999
