2
Properties=species:S:1:pos:R:3:forces:R:3 energy=6110.156835917948 pbc="F F F"
Y        0.00000000       0.00000000       0.00000000       0.00000000       0.00000000  -98871.36718750
Y        0.00000000       0.00000000       0.18000000       0.00000000       0.00000000   98871.36718750
2
Properties=species:S:1:pos:R:3:forces:R:3 energy=2563.8890136523237 pbc="F F F"
Y        0.00000000       0.00000000       0.00000000       0.00000000       0.00000000  -34810.24609375
Y        0.00000000       0.00000000       0.23878788       0.00000000       0.00000000   34810.24609375
2
Properties=species:S:1:pos:R:3:forces:R:3 energy=1216.982641582011 pbc="F F F"
Y        0.00000000       0.00000000       0.00000000       0.00000000       0.00000000  -14444.06347656
Y        0.00000000       0.00000000       0.29757576       0.00000000       0.00000000   14444.06347656
2
Properties=species:S:1:pos:R:3:forces:R:3 energy=630.5643066337449 pbc="F F F"
Y        0.00000000       0.00000000       0.00000000       0.00000000       0.00000000   -6643.05175781
Y        0.00000000       0.00000000       0.35636364       0.00000000       0.00000000    6643.05175781
2
Properties=species:S:1:pos:R:3:forces:R:3 energy=351.93475951460425 pbc="F F F"
Y        0.00000000       0.00000000       0.00000000       0.00000000       0.00000000   -3275.98730469
Y        0.00000000       0.00000000       0.41515152       0.00000000       0.00000000    3275.98730469
2
Properties=species:S:1:pos:R:3:forces:R:3 energy=211.1684478690964 pbc="F F F"
Y        0.00000000       0.00000000       0.00000000       0.00000000       0.00000000   -1701.94116211
Y        0.00000000       0.00000000       0.47393939       0.00000000       0.00000000    1701.94116211
2
Properties=species:S:1:pos:R:3:forces:R:3 energy=136.59499207755647 pbc="F F F"
Y        0.00000000       0.00000000       0.00000000       0.00000000       0.00000000    -922.34906006
Y        0.00000000       0.00000000       0.53272727       0.00000000       0.00000000     922.34906006
2
Properties=species:S:1:pos:R:3:forces:R:3 energy=95.50253147057484 pbc="F F F"
Y        0.00000000       0.00000000       0.00000000       0.00000000       0.00000000    -518.15863037
Y        0.00000000       0.00000000       0.59151515       0.00000000       0.00000000     518.15863037
2
Properties=species:S:1:pos:R:3:forces:R:3 energy=72.07827614383059 pbc="F F F"
Y        0.00000000       0.00000000       0.00000000       0.00000000       0.00000000    -300.41549683
Y        0.00000000       0.00000000       0.65030303       0.00000000       0.00000000     300.41549683
2
Properties=species:S:1:pos:R:3:forces:R:3 energy=58.311590721347194 pbc="F F F"
Y        0.00000000       0.00000000       0.00000000       0.00000000       0.00000000    -179.47854614
Y        0.00000000       0.00000000       0.70909091       0.00000000       0.00000000     179.47854614
2
Properties=species:S:1:pos:R:3:forces:R:3 energy=49.95660271823732 pbc="F F F"
Y        0.00000000       0.00000000       0.00000000       0.00000000       0.00000000    -111.24338531
Y        0.00000000       0.00000000       0.76787879       0.00000000       0.00000000     111.24338531
2
Properties=species:S:1:pos:R:3:forces:R:3 energy=44.64239769427941 pbc="F F F"
Y        0.00000000       0.00000000       0.00000000       0.00000000       0.00000000     -73.43500519
Y        0.00000000       0.00000000       0.82666667       0.00000000       0.00000000      73.43500519
2
Properties=species:S:1:pos:R:3:forces:R:3 energy=40.957461373582525 pbc="F F F"
Y        0.00000000       0.00000000       0.00000000       0.00000000       0.00000000     -54.40177917
Y        0.00000000       0.00000000       0.88545455       0.00000000       0.00000000      54.40177917
2
Properties=species:S:1:pos:R:3:forces:R:3 energy=38.0111802319167 pbc="F F F"
Y        0.00000000       0.00000000       0.00000000       0.00000000       0.00000000     -47.43379211
Y        0.00000000       0.00000000       0.94424242       0.00000000       0.00000000      47.43379211
2
Properties=species:S:1:pos:R:3:forces:R:3 energy=35.22727178706815 pbc="F F F"
Y        0.00000000       0.00000000       0.00000000       0.00000000       0.00000000     -48.33823013
Y        0.00000000       0.00000000       1.00303030       0.00000000       0.00000000      48.33823013
2
Properties=species:S:1:pos:R:3:forces:R:3 energy=32.22491102799049 pbc="F F F"
Y        0.00000000       0.00000000       0.00000000       0.00000000       0.00000000     -54.49518204
Y        0.00000000       0.00000000       1.06181818       0.00000000       0.00000000      54.49518204
2
Properties=species:S:1:pos:R:3:forces:R:3 energy=28.76343255057093 pbc="F F F"
Y        0.00000000       0.00000000       0.00000000       0.00000000       0.00000000     -63.51257706
Y        0.00000000       0.00000000       1.12060606       0.00000000       0.00000000      63.51257706
2
Properties=species:S:1:pos:R:3:forces:R:3 energy=24.756149311146288 pbc="F F F"
Y        0.00000000       0.00000000       0.00000000       0.00000000       0.00000000     -72.61434937
Y        0.00000000       0.00000000       1.17939394       0.00000000       0.00000000      72.61434937
2
Properties=species:S:1:pos:R:3:forces:R:3 energy=20.274367601710694 pbc="F F F"
Y        0.00000000       0.00000000       0.00000000       0.00000000       0.00000000     -79.20069122
Y        0.00000000       0.00000000       1.23818182       0.00000000       0.00000000      79.20069122
2
Properties=species:S:1:pos:R:3:forces:R:3 energy=15.556319144556145 pbc="F F F"
Y        0.00000000       0.00000000       0.00000000       0.00000000       0.00000000     -80.07115173
Y        0.00000000       0.00000000       1.29696970       0.00000000       0.00000000      80.07115173
2
Properties=species:S:1:pos:R:3:forces:R:3 energy=11.02175230297785 pbc="F F F"
Y        0.00000000       0.00000000       0.00000000       0.00000000       0.00000000     -72.85514832
Y        0.00000000       0.00000000       1.35575758       0.00000000       0.00000000      72.85514832
2
Properties=species:S:1:pos:R:3:forces:R:3 energy=7.110464102937184 pbc="F F F"
Y        0.00000000       0.00000000       0.00000000       0.00000000       0.00000000     -59.65399933
Y        0.00000000       0.00000000       1.41454545       0.00000000       0.00000000      59.65399933
2
Properties=species:S:1:pos:R:3:forces:R:3 energy=4.014675320999376 pbc="F F F"
Y        0.00000000       0.00000000       0.00000000       0.00000000       0.00000000     -45.99917221
Y        0.00000000       0.00000000       1.47333333       0.00000000       0.00000000      45.99917221
2
Properties=species:S:1:pos:R:3:forces:R:3 energy=1.6462756116048036 pbc="F F F"
Y        0.00000000       0.00000000       0.00000000       0.00000000       0.00000000     -35.03621674
Y        0.00000000       0.00000000       1.53212121       0.00000000       0.00000000      35.03621674
2
Properties=species:S:1:pos:R:3:forces:R:3 energy=-0.14352713370112807 pbc="F F F"
Y        0.00000000       0.00000000       0.00000000       0.00000000       0.00000000     -26.07193184
Y        0.00000000       0.00000000       1.59090909       0.00000000       0.00000000      26.07193184
2
Properties=species:S:1:pos:R:3:forces:R:3 energy=-1.4454541569952064 pbc="F F F"
Y        0.00000000       0.00000000       0.00000000       0.00000000       0.00000000     -18.52434731
Y        0.00000000       0.00000000       1.64969697       0.00000000       0.00000000      18.52434731
2
Properties=species:S:1:pos:R:3:forces:R:3 energy=-2.3673074461843466 pbc="F F F"
Y        0.00000000       0.00000000       0.00000000       0.00000000       0.00000000     -13.25263786
Y        0.00000000       0.00000000       1.70848485       0.00000000       0.00000000      13.25263786
2
Properties=species:S:1:pos:R:3:forces:R:3 energy=-3.0454071384109636 pbc="F F F"
Y        0.00000000       0.00000000       0.00000000       0.00000000       0.00000000     -10.08975983
Y        0.00000000       0.00000000       1.76727273       0.00000000       0.00000000      10.08975983
2
Properties=species:S:1:pos:R:3:forces:R:3 energy=-3.576942721117716 pbc="F F F"
Y        0.00000000       0.00000000       0.00000000       0.00000000       0.00000000      -8.13283730
Y        0.00000000       0.00000000       1.82606061       0.00000000       0.00000000       8.13283730
2
Properties=species:S:1:pos:R:3:forces:R:3 energy=-4.01364479307246 pbc="F F F"
Y        0.00000000       0.00000000       0.00000000       0.00000000       0.00000000      -6.79996538
Y        0.00000000       0.00000000       1.88484848       0.00000000       0.00000000       6.79996538
2
Properties=species:S:1:pos:R:3:forces:R:3 energy=-4.3835904838242525 pbc="F F F"
Y        0.00000000       0.00000000       0.00000000       0.00000000       0.00000000      -5.83522034
Y        0.00000000       0.00000000       1.94363636       0.00000000       0.00000000       5.83522034
2
Properties=species:S:1:pos:R:3:forces:R:3 energy=-4.7044169614814315 pbc="F F F"
Y        0.00000000       0.00000000       0.00000000       0.00000000       0.00000000      -5.10992241
Y        0.00000000       0.00000000       2.00242424       0.00000000       0.00000000       5.10992241
2
Properties=species:S:1:pos:R:3:forces:R:3 energy=-4.986949743669179 pbc="F F F"
Y        0.00000000       0.00000000       0.00000000       0.00000000       0.00000000      -4.51653910
Y        0.00000000       0.00000000       2.06121212       0.00000000       0.00000000       4.51653910
2
Properties=species:S:1:pos:R:3:forces:R:3 energy=-5.236684169559526 pbc="F F F"
Y        0.00000000       0.00000000       0.00000000       0.00000000       0.00000000      -3.98790383
Y        0.00000000       0.00000000       2.12000000       0.00000000       0.00000000       3.98790383
2
Properties=species:S:1:pos:R:3:forces:R:3 energy=-5.456768834585789 pbc="F F F"
Y        0.00000000       0.00000000       0.00000000       0.00000000       0.00000000      -3.50750422
Y        0.00000000       0.00000000       2.17878788       0.00000000       0.00000000       3.50750422
2
Properties=species:S:1:pos:R:3:forces:R:3 energy=-5.649997337588551 pbc="F F F"
Y        0.00000000       0.00000000       0.00000000       0.00000000       0.00000000      -3.07357383
Y        0.00000000       0.00000000       2.23757576       0.00000000       0.00000000       3.07357383
2
Properties=species:S:1:pos:R:3:forces:R:3 energy=-5.818917661922411 pbc="F F F"
Y        0.00000000       0.00000000       0.00000000       0.00000000       0.00000000      -2.67898417
Y        0.00000000       0.00000000       2.29636364       0.00000000       0.00000000       2.67898417
2
Properties=species:S:1:pos:R:3:forces:R:3 energy=-5.965580589170136 pbc="F F F"
Y        0.00000000       0.00000000       0.00000000       0.00000000       0.00000000      -2.31517816
Y        0.00000000       0.00000000       2.35515152       0.00000000       0.00000000       2.31517816
2
Properties=species:S:1:pos:R:3:forces:R:3 energy=-6.091626437492109 pbc="F F F"
Y        0.00000000       0.00000000       0.00000000       0.00000000       0.00000000      -1.97698939
Y        0.00000000       0.00000000       2.41393939       0.00000000       0.00000000       1.97698939
2
Properties=species:S:1:pos:R:3:forces:R:3 energy=-6.198500218218822 pbc="F F F"
Y        0.00000000       0.00000000       0.00000000       0.00000000       0.00000000      -1.66308284
Y        0.00000000       0.00000000       2.47272727       0.00000000       0.00000000       1.66308284
2
Properties=species:S:1:pos:R:3:forces:R:3 energy=-6.2876691399594336 pbc="F F F"
Y        0.00000000       0.00000000       0.00000000       0.00000000       0.00000000      -1.37499034
Y        0.00000000       0.00000000       2.53151515       0.00000000       0.00000000       1.37499034
2
Properties=species:S:1:pos:R:3:forces:R:3 energy=-6.360724575725891 pbc="F F F"
Y        0.00000000       0.00000000       0.00000000       0.00000000       0.00000000      -1.11528349
Y        0.00000000       0.00000000       2.59030303       0.00000000       0.00000000       1.11528349
2
Properties=species:S:1:pos:R:3:forces:R:3 energy=-6.419389676328505 pbc="F F F"
Y        0.00000000       0.00000000       0.00000000       0.00000000       0.00000000      -0.88558078
Y        0.00000000       0.00000000       2.64909091       0.00000000       0.00000000       0.88558078
2
Properties=species:S:1:pos:R:3:forces:R:3 energy=-6.465414749641295 pbc="F F F"
Y        0.00000000       0.00000000       0.00000000       0.00000000       0.00000000      -0.68476003
Y        0.00000000       0.00000000       2.70787879       0.00000000       0.00000000       0.68476003
2
Properties=species:S:1:pos:R:3:forces:R:3 energy=-6.500360689177287 pbc="F F F"
Y        0.00000000       0.00000000       0.00000000       0.00000000       0.00000000      -0.50720805
Y        0.00000000       0.00000000       2.76666667       0.00000000       0.00000000       0.50720805
2
Properties=species:S:1:pos:R:3:forces:R:3 energy=-6.5253028848999834 pbc="F F F"
Y        0.00000000       0.00000000       0.00000000       0.00000000       0.00000000      -0.34245917
Y        0.00000000       0.00000000       2.82545455       0.00000000       0.00000000       0.34245917
2
Properties=species:S:1:pos:R:3:forces:R:3 energy=-6.540627789171308 pbc="F F F"
Y        0.00000000       0.00000000       0.00000000       0.00000000       0.00000000      -0.17791227
Y        0.00000000       0.00000000       2.88424242       0.00000000       0.00000000       0.17791227
2
Properties=species:S:1:pos:R:3:forces:R:3 energy=-6.546024884564119 pbc="F F F"
Y        0.00000000       0.00000000       0.00000000       0.00000000       0.00000000      -0.00356439
Y        0.00000000       0.00000000       2.94303030       0.00000000       0.00000000       0.00356439
2
Properties=species:S:1:pos:R:3:forces:R:3 energy=-6.540782116192606 pbc="F F F"
Y        0.00000000       0.00000000       0.00000000       0.00000000       0.00000000       0.18399596
Y        0.00000000       0.00000000       3.00181818       0.00000000       0.00000000      -0.18399596
2
Properties=species:S:1:pos:R:3:forces:R:3 energy=-6.52421560838761 pbc="F F F"
Y        0.00000000       0.00000000       0.00000000       0.00000000       0.00000000       0.38028368
Y        0.00000000       0.00000000       3.06060606       0.00000000       0.00000000      -0.38028368
2
Properties=species:S:1:pos:R:3:forces:R:3 energy=-6.496111832511495 pbc="F F F"
Y        0.00000000       0.00000000       0.00000000       0.00000000       0.00000000       0.57430041
Y        0.00000000       0.00000000       3.11939394       0.00000000       0.00000000      -0.57430041
2
Properties=species:S:1:pos:R:3:forces:R:3 energy=-6.457013841342499 pbc="F F F"
Y        0.00000000       0.00000000       0.00000000       0.00000000       0.00000000       0.75190896
Y        0.00000000       0.00000000       3.17818182       0.00000000       0.00000000      -0.75190896
2
Properties=species:S:1:pos:R:3:forces:R:3 energy=-6.408284771804584 pbc="F F F"
Y        0.00000000       0.00000000       0.00000000       0.00000000       0.00000000       0.90012515
Y        0.00000000       0.00000000       3.23696970       0.00000000       0.00000000      -0.90012515
2
Properties=species:S:1:pos:R:3:forces:R:3 energy=-6.351917349768869 pbc="F F F"
Y        0.00000000       0.00000000       0.00000000       0.00000000       0.00000000       1.01104784
Y        0.00000000       0.00000000       3.29575758       0.00000000       0.00000000      -1.01104784
2
Properties=species:S:1:pos:R:3:forces:R:3 energy=-6.290157894251415 pbc="F F F"
Y        0.00000000       0.00000000       0.00000000       0.00000000       0.00000000       1.08407390
Y        0.00000000       0.00000000       3.35454545       0.00000000       0.00000000      -1.08407390
2
Properties=species:S:1:pos:R:3:forces:R:3 energy=-6.225071491055973 pbc="F F F"
Y        0.00000000       0.00000000       0.00000000       0.00000000       0.00000000       1.12588692
Y        0.00000000       0.00000000       3.41333333       0.00000000       0.00000000      -1.12588692
2
Properties=species:S:1:pos:R:3:forces:R:3 energy=-6.158169560590876 pbc="F F F"
Y        0.00000000       0.00000000       0.00000000       0.00000000       0.00000000       1.14784241
Y        0.00000000       0.00000000       3.47212121       0.00000000       0.00000000      -1.14784241
2
Properties=species:S:1:pos:R:3:forces:R:3 energy=-6.090304002309186 pbc="F F F"
Y        0.00000000       0.00000000       0.00000000       0.00000000       0.00000000       1.15976107
Y        0.00000000       0.00000000       3.53090909       0.00000000       0.00000000      -1.15976107
2
Properties=species:S:1:pos:R:3:forces:R:3 energy=-6.0219792694674465 pbc="F F F"
Y        0.00000000       0.00000000       0.00000000       0.00000000       0.00000000       1.16273332
Y        0.00000000       0.00000000       3.58969697       0.00000000       0.00000000      -1.16273332
2
Properties=species:S:1:pos:R:3:forces:R:3 energy=-5.953892961687942 pbc="F F F"
Y        0.00000000       0.00000000       0.00000000       0.00000000       0.00000000       1.15061152
Y        0.00000000       0.00000000       3.64848485       0.00000000       0.00000000      -1.15061152
2
Properties=species:S:1:pos:R:3:forces:R:3 energy=-5.887041833176032 pbc="F F F"
Y        0.00000000       0.00000000       0.00000000       0.00000000       0.00000000       1.12120497
Y        0.00000000       0.00000000       3.70727273       0.00000000       0.00000000      -1.12120497
2
Properties=species:S:1:pos:R:3:forces:R:3 energy=-5.822257595900467 pbc="F F F"
Y        0.00000000       0.00000000       0.00000000       0.00000000       0.00000000       1.08211005
Y        0.00000000       0.00000000       3.76606061       0.00000000       0.00000000      -1.08211005
2
Properties=species:S:1:pos:R:3:forces:R:3 energy=-5.759777961475652 pbc="F F F"
Y        0.00000000       0.00000000       0.00000000       0.00000000       0.00000000       1.04454577
Y        0.00000000       0.00000000       3.82484848       0.00000000       0.00000000      -1.04454577
2
Properties=species:S:1:pos:R:3:forces:R:3 energy=-5.699286569577513 pbc="F F F"
Y        0.00000000       0.00000000       0.00000000       0.00000000       0.00000000       1.01476216
Y        0.00000000       0.00000000       3.88363636       0.00000000       0.00000000      -1.01476216
2
Properties=species:S:1:pos:R:3:forces:R:3 energy=-5.640340822358408 pbc="F F F"
Y        0.00000000       0.00000000       0.00000000       0.00000000       0.00000000       0.99121821
Y        0.00000000       0.00000000       3.94242424       0.00000000       0.00000000      -0.99121821
2
Properties=species:S:1:pos:R:3:forces:R:3 energy=-5.582744474106614 pbc="F F F"
Y        0.00000000       0.00000000       0.00000000       0.00000000       0.00000000       0.96770376
Y        0.00000000       0.00000000       4.00121212       0.00000000       0.00000000      -0.96770376
2
Properties=species:S:1:pos:R:3:forces:R:3 energy=-5.526679618767343 pbc="F F F"
Y        0.00000000       0.00000000       0.00000000       0.00000000       0.00000000       0.93835646
Y        0.00000000       0.00000000       4.06000000       0.00000000       0.00000000      -0.93835646
2
Properties=species:S:1:pos:R:3:forces:R:3 energy=-5.472578256855838 pbc="F F F"
Y        0.00000000       0.00000000       0.00000000       0.00000000       0.00000000       0.90088099
Y        0.00000000       0.00000000       4.11878788       0.00000000       0.00000000      -0.90088099
2
Properties=species:S:1:pos:R:3:forces:R:3 energy=-5.420887692985017 pbc="F F F"
Y        0.00000000       0.00000000       0.00000000       0.00000000       0.00000000       0.85681629
Y        0.00000000       0.00000000       4.17757576       0.00000000       0.00000000      -0.85681629
2
Properties=species:S:1:pos:R:3:forces:R:3 energy=-5.37188962387378 pbc="F F F"
Y        0.00000000       0.00000000       0.00000000       0.00000000       0.00000000       0.81006652
Y        0.00000000       0.00000000       4.23636364       0.00000000       0.00000000      -0.81006652
2
Properties=species:S:1:pos:R:3:forces:R:3 energy=-5.325606857006179 pbc="F F F"
Y        0.00000000       0.00000000       0.00000000       0.00000000       0.00000000       0.76513875
Y        0.00000000       0.00000000       4.29515152       0.00000000       0.00000000      -0.76513875
2
Properties=species:S:1:pos:R:3:forces:R:3 energy=-5.281815521336181 pbc="F F F"
Y        0.00000000       0.00000000       0.00000000       0.00000000       0.00000000       0.72594106
Y        0.00000000       0.00000000       4.35393939       0.00000000       0.00000000      -0.72594106
2
Properties=species:S:1:pos:R:3:forces:R:3 energy=-5.240089463828525 pbc="F F F"
Y        0.00000000       0.00000000       0.00000000       0.00000000       0.00000000       0.69513667
Y        0.00000000       0.00000000       4.41272727       0.00000000       0.00000000      -0.69513667
2
Properties=species:S:1:pos:R:3:forces:R:3 energy=-5.199895323786897 pbc="F F F"
Y        0.00000000       0.00000000       0.00000000       0.00000000       0.00000000       0.67388427
Y        0.00000000       0.00000000       4.47151515       0.00000000       0.00000000      -0.67388427
2
Properties=species:S:1:pos:R:3:forces:R:3 energy=-5.1606775745948354 pbc="F F F"
Y        0.00000000       0.00000000       0.00000000       0.00000000       0.00000000       0.66169983
Y        0.00000000       0.00000000       4.53030303       0.00000000       0.00000000      -0.66169983
2
Properties=species:S:1:pos:R:3:forces:R:3 energy=-5.121959492816038 pbc="F F F"
Y        0.00000000       0.00000000       0.00000000       0.00000000       0.00000000       0.65643418
Y        0.00000000       0.00000000       4.58909091       0.00000000       0.00000000      -0.65643418
2
Properties=species:S:1:pos:R:3:forces:R:3 energy=-5.0834329556355575 pbc="F F F"
Y        0.00000000       0.00000000       0.00000000       0.00000000       0.00000000       0.65442789
Y        0.00000000       0.00000000       4.64787879       0.00000000       0.00000000      -0.65442789
2
Properties=species:S:1:pos:R:3:forces:R:3 energy=-5.045042414884802 pbc="F F F"
Y        0.00000000       0.00000000       0.00000000       0.00000000       0.00000000       0.65094310
Y        0.00000000       0.00000000       4.70666667       0.00000000       0.00000000      -0.65094310
2
Properties=species:S:1:pos:R:3:forces:R:3 energy=-5.00702378861225 pbc="F F F"
Y        0.00000000       0.00000000       0.00000000       0.00000000       0.00000000       0.64104092
Y        0.00000000       0.00000000       4.76545455       0.00000000       0.00000000      -0.64104092
2
Properties=species:S:1:pos:R:3:forces:R:3 energy=-4.9698765494386645 pbc="F F F"
Y        0.00000000       0.00000000       0.00000000       0.00000000       0.00000000       0.62074220
Y        0.00000000       0.00000000       4.82424242       0.00000000       0.00000000      -0.62074220
2
Properties=species:S:1:pos:R:3:forces:R:3 energy=-4.9342806028360995 pbc="F F F"
Y        0.00000000       0.00000000       0.00000000       0.00000000       0.00000000       0.58836132
Y        0.00000000       0.00000000       4.88303030       0.00000000       0.00000000      -0.58836132
2
Properties=species:S:1:pos:R:3:forces:R:3 energy=-4.90090830558162 pbc="F F F"
Y        0.00000000       0.00000000       0.00000000       0.00000000       0.00000000       0.54547143
Y        0.00000000       0.00000000       4.94181818       0.00000000       0.00000000      -0.54547143
2
Properties=species:S:1:pos:R:3:forces:R:3 energy=-4.870255182230492 pbc="F F F"
Y        0.00000000       0.00000000       0.00000000       0.00000000       0.00000000       0.49694863
Y        0.00000000       0.00000000       5.00060606       0.00000000       0.00000000      -0.49694863
2
Properties=species:S:1:pos:R:3:forces:R:3 energy=-4.842454410119065 pbc="F F F"
Y        0.00000000       0.00000000       0.00000000       0.00000000       0.00000000       0.44962457
Y        0.00000000       0.00000000       5.05939394       0.00000000       0.00000000      -0.44962457
2
Properties=species:S:1:pos:R:3:forces:R:3 energy=-4.817246111717321 pbc="F F F"
Y        0.00000000       0.00000000       0.00000000       0.00000000       0.00000000       0.40949619
Y        0.00000000       0.00000000       5.11818182       0.00000000       0.00000000      -0.40949619
2
Properties=species:S:1:pos:R:3:forces:R:3 energy=-4.794132238006264 pbc="F F F"
Y        0.00000000       0.00000000       0.00000000       0.00000000       0.00000000       0.37812495
Y        0.00000000       0.00000000       5.17696970       0.00000000       0.00000000      -0.37812495
2
Properties=species:S:1:pos:R:3:forces:R:3 energy=-4.772714620680516 pbc="F F F"
Y        0.00000000       0.00000000       0.00000000       0.00000000       0.00000000       0.35045937
Y        0.00000000       0.00000000       5.23575758       0.00000000       0.00000000      -0.35045937
2
Properties=species:S:1:pos:R:3:forces:R:3 energy=-4.753011268903502 pbc="F F F"
Y        0.00000000       0.00000000       0.00000000       0.00000000       0.00000000       0.31898755
Y        0.00000000       0.00000000       5.29454545       0.00000000       0.00000000      -0.31898755
2
Properties=species:S:1:pos:R:3:forces:R:3 energy=-4.7351942862684755 pbc="F F F"
Y        0.00000000       0.00000000       0.00000000       0.00000000       0.00000000       0.28927621
Y        0.00000000       0.00000000       5.35333333       0.00000000       0.00000000      -0.28927621
2
Properties=species:S:1:pos:R:3:forces:R:3 energy=-4.718388941408395 pbc="F F F"
Y        0.00000000       0.00000000       0.00000000       0.00000000       0.00000000       0.29006541
Y        0.00000000       0.00000000       5.41212121       0.00000000       0.00000000      -0.29006541
2
Properties=species:S:1:pos:R:3:forces:R:3 energy=-4.7002777474347965 pbc="F F F"
Y        0.00000000       0.00000000       0.00000000       0.00000000       0.00000000       0.32926461
Y        0.00000000       0.00000000       5.47090909       0.00000000       0.00000000      -0.32926461
2
Properties=species:S:1:pos:R:3:forces:R:3 energy=-4.680015323136377 pbc="F F F"
Y        0.00000000       0.00000000       0.00000000       0.00000000       0.00000000       0.35220665
Y        0.00000000       0.00000000       5.52969697       0.00000000       0.00000000      -0.35220665
2
Properties=species:S:1:pos:R:3:forces:R:3 energy=-4.659844292737838 pbc="F F F"
Y        0.00000000       0.00000000       0.00000000       0.00000000       0.00000000       0.32826567
Y        0.00000000       0.00000000       5.58848485       0.00000000       0.00000000      -0.32826567
2
Properties=species:S:1:pos:R:3:forces:R:3 energy=-4.64149903073787 pbc="F F F"
Y        0.00000000       0.00000000       0.00000000       0.00000000       0.00000000       0.30065233
Y        0.00000000       0.00000000       5.64727273       0.00000000       0.00000000      -0.30065233
2
Properties=species:S:1:pos:R:3:forces:R:3 energy=-4.623506052337727 pbc="F F F"
Y        0.00000000       0.00000000       0.00000000       0.00000000       0.00000000       0.32079098
Y        0.00000000       0.00000000       5.70606061       0.00000000       0.00000000      -0.32079098
2
Properties=species:S:1:pos:R:3:forces:R:3 energy=-4.603335556552016 pbc="F F F"
Y        0.00000000       0.00000000       0.00000000       0.00000000       0.00000000       0.35891443
Y        0.00000000       0.00000000       5.76484848       0.00000000       0.00000000      -0.35891443
2
Properties=species:S:1:pos:R:3:forces:R:3 energy=-4.5828985095065935 pbc="F F F"
Y        0.00000000       0.00000000       0.00000000       0.00000000       0.00000000       0.31982619
Y        0.00000000       0.00000000       5.82363636       0.00000000       0.00000000      -0.31982619
2
Properties=species:S:1:pos:R:3:forces:R:3 energy=-4.567462991646777 pbc="F F F"
Y        0.00000000       0.00000000       0.00000000       0.00000000       0.00000000       0.19893634
Y        0.00000000       0.00000000       5.88242424       0.00000000       0.00000000      -0.19893634
2
Properties=species:S:1:pos:R:3:forces:R:3 energy=-4.559436447102817 pbc="F F F"
Y        0.00000000       0.00000000       0.00000000       0.00000000       0.00000000       0.08065179
Y        0.00000000       0.00000000       5.94121212       0.00000000       0.00000000      -0.08065179
2
Properties=species:S:1:pos:R:3:forces:R:3 energy=-4.556533662656793 pbc="F F F"
Y        0.00000000       0.00000000       0.00000000       0.00000000       0.00000000       0.03343363
Y        0.00000000       0.00000000       6.00000000       0.00000000       0.00000000      -0.03343363
