2
Properties=species:S:1:pos:R:3:forces:R:3 energy=-363912.7101157144 pbc="F F F"
Ac       0.00000000       0.00000000       0.00000000       0.00000000       0.00000000 3746062.00000000
Ac       0.00000000       0.00000000       0.18000000       0.00000000       0.00000000 -3746062.00000000
2
Properties=species:S:1:pos:R:3:forces:R:3 energy=-175837.9601157144 pbc="F F F"
Ac       0.00000000       0.00000000       0.00000000       0.00000000       0.00000000 2570145.50000000
Ac       0.00000000       0.00000000       0.23878788       0.00000000       0.00000000 -2570145.50000000
2
Properties=species:S:1:pos:R:3:forces:R:3 energy=-64078.04605321439 pbc="F F F"
Ac       0.00000000       0.00000000       0.00000000       0.00000000       0.00000000 1282772.87500000
Ac       0.00000000       0.00000000       0.29757576       0.00000000       0.00000000 -1282772.87500000
2
Properties=species:S:1:pos:R:3:forces:R:3 energy=-16246.209139151895 pbc="F F F"
Ac       0.00000000       0.00000000       0.00000000       0.00000000       0.00000000  427470.43750000
Ac       0.00000000       0.00000000       0.35636364       0.00000000       0.00000000 -427470.43750000
2
Properties=species:S:1:pos:R:3:forces:R:3 energy=-2866.1285727456448 pbc="F F F"
Ac       0.00000000       0.00000000       0.00000000       0.00000000       0.00000000   98356.82031250
Ac       0.00000000       0.00000000       0.41515152       0.00000000       0.00000000  -98356.82031250
2
Properties=species:S:1:pos:R:3:forces:R:3 energy=-302.8422873325827 pbc="F F F"
Ac       0.00000000       0.00000000       0.00000000       0.00000000       0.00000000   11673.92773438
Ac       0.00000000       0.00000000       0.47393939       0.00000000       0.00000000  -11673.92773438
2
Properties=species:S:1:pos:R:3:forces:R:3 energy=-21.790596264613587 pbc="F F F"
Ac       0.00000000       0.00000000       0.00000000       0.00000000       0.00000000    1234.28637695
Ac       0.00000000       0.00000000       0.53272727       0.00000000       0.00000000   -1234.28637695
2
Properties=species:S:1:pos:R:3:forces:R:3 energy=6.939051384471275 pbc="F F F"
Ac       0.00000000       0.00000000       0.00000000       0.00000000       0.00000000     884.34765625
Ac       0.00000000       0.00000000       0.59151515       0.00000000       0.00000000    -884.34765625
2
Properties=species:S:1:pos:R:3:forces:R:3 energy=41.78467728719422 pbc="F F F"
Ac       0.00000000       0.00000000       0.00000000       0.00000000       0.00000000     121.42251587
Ac       0.00000000       0.00000000       0.65030303       0.00000000       0.00000000    -121.42251587
2
Properties=species:S:1:pos:R:3:forces:R:3 energy=37.13874990868016 pbc="F F F"
Ac       0.00000000       0.00000000       0.00000000       0.00000000       0.00000000    -147.64160156
Ac       0.00000000       0.00000000       0.70909091       0.00000000       0.00000000     147.64160156
2
Properties=species:S:1:pos:R:3:forces:R:3 energy=27.853826418569806 pbc="F F F"
Ac       0.00000000       0.00000000       0.00000000       0.00000000       0.00000000    -141.49108887
Ac       0.00000000       0.00000000       0.76787879       0.00000000       0.00000000     141.49108887
2
Properties=species:S:1:pos:R:3:forces:R:3 energy=21.12654304215691 pbc="F F F"
Ac       0.00000000       0.00000000       0.00000000       0.00000000       0.00000000    -104.26595306
Ac       0.00000000       0.00000000       0.82666667       0.00000000       0.00000000     104.26595306
2
Properties=species:S:1:pos:R:3:forces:R:3 energy=15.68989864007419 pbc="F F F"
Ac       0.00000000       0.00000000       0.00000000       0.00000000       0.00000000     -81.20559692
Ac       0.00000000       0.00000000       0.88545455       0.00000000       0.00000000      81.20559692
2
Properties=species:S:1:pos:R:3:forces:R:3 energy=11.538842565813244 pbc="F F F"
Ac       0.00000000       0.00000000       0.00000000       0.00000000       0.00000000     -64.53845215
Ac       0.00000000       0.00000000       0.94424242       0.00000000       0.00000000      64.53845215
2
Properties=species:S:1:pos:R:3:forces:R:3 energy=7.992150950050344 pbc="F F F"
Ac       0.00000000       0.00000000       0.00000000       0.00000000       0.00000000     -59.13121414
Ac       0.00000000       0.00000000       1.00303030       0.00000000       0.00000000      59.13121414
2
Properties=species:S:1:pos:R:3:forces:R:3 energy=4.744568894581091 pbc="F F F"
Ac       0.00000000       0.00000000       0.00000000       0.00000000       0.00000000     -51.16086960
Ac       0.00000000       0.00000000       1.06181818       0.00000000       0.00000000      51.16086960
2
Properties=species:S:1:pos:R:3:forces:R:3 energy=2.199493997538982 pbc="F F F"
Ac       0.00000000       0.00000000       0.00000000       0.00000000       0.00000000     -31.77628708
Ac       0.00000000       0.00000000       1.12060606       0.00000000       0.00000000      31.77628708
2
Properties=species:S:1:pos:R:3:forces:R:3 energy=0.8427041138434499 pbc="F F F"
Ac       0.00000000       0.00000000       0.00000000       0.00000000       0.00000000     -17.85342216
Ac       0.00000000       0.00000000       1.17939394       0.00000000       0.00000000      17.85342216
2
Properties=species:S:1:pos:R:3:forces:R:3 energy=-0.34495238077113294 pbc="F F F"
Ac       0.00000000       0.00000000       0.00000000       0.00000000       0.00000000     -15.64744282
Ac       0.00000000       0.00000000       1.23818182       0.00000000       0.00000000      15.64744282
2
Properties=species:S:1:pos:R:3:forces:R:3 energy=-0.7622524436762524 pbc="F F F"
Ac       0.00000000       0.00000000       0.00000000       0.00000000       0.00000000       0.37274393
Ac       0.00000000       0.00000000       1.29696970       0.00000000       0.00000000      -0.37274393
2
Properties=species:S:1:pos:R:3:forces:R:3 energy=-0.31955924685599174 pbc="F F F"
Ac       0.00000000       0.00000000       0.00000000       0.00000000       0.00000000      13.65045834
Ac       0.00000000       0.00000000       1.35575758       0.00000000       0.00000000     -13.65045834
2
Properties=species:S:1:pos:R:3:forces:R:3 energy=0.5792662398799784 pbc="F F F"
Ac       0.00000000       0.00000000       0.00000000       0.00000000       0.00000000      14.69615841
Ac       0.00000000       0.00000000       1.41454545       0.00000000       0.00000000     -14.69615841
2
Properties=species:S:1:pos:R:3:forces:R:3 energy=1.316883025651871 pbc="F F F"
Ac       0.00000000       0.00000000       0.00000000       0.00000000       0.00000000      11.33421707
Ac       0.00000000       0.00000000       1.47333333       0.00000000       0.00000000     -11.33421707
2
Properties=species:S:1:pos:R:3:forces:R:3 energy=1.984386207875697 pbc="F F F"
Ac       0.00000000       0.00000000       0.00000000       0.00000000       0.00000000      10.59207439
Ac       0.00000000       0.00000000       1.53212121       0.00000000       0.00000000     -10.59207439
2
Properties=species:S:1:pos:R:3:forces:R:3 energy=2.4729720754808495 pbc="F F F"
Ac       0.00000000       0.00000000       0.00000000       0.00000000       0.00000000       5.98197460
Ac       0.00000000       0.00000000       1.59090909       0.00000000       0.00000000      -5.98197460
2
Properties=species:S:1:pos:R:3:forces:R:3 energy=2.744620633879335 pbc="F F F"
Ac       0.00000000       0.00000000       0.00000000       0.00000000       0.00000000       3.26478910
Ac       0.00000000       0.00000000       1.64969697       0.00000000       0.00000000      -3.26478910
2
Properties=species:S:1:pos:R:3:forces:R:3 energy=2.8249696110894114 pbc="F F F"
Ac       0.00000000       0.00000000       0.00000000       0.00000000       0.00000000      -0.73149526
Ac       0.00000000       0.00000000       1.70848485       0.00000000       0.00000000       0.73149526
2
Properties=species:S:1:pos:R:3:forces:R:3 energy=2.6797183550283585 pbc="F F F"
Ac       0.00000000       0.00000000       0.00000000       0.00000000       0.00000000      -3.94634676
Ac       0.00000000       0.00000000       1.76727273       0.00000000       0.00000000       3.94634676
2
Properties=species:S:1:pos:R:3:forces:R:3 energy=2.3893475806418736 pbc="F F F"
Ac       0.00000000       0.00000000       0.00000000       0.00000000       0.00000000      -5.69324827
Ac       0.00000000       0.00000000       1.82606061       0.00000000       0.00000000       5.69324827
2
Properties=species:S:1:pos:R:3:forces:R:3 energy=2.0267620394487014 pbc="F F F"
Ac       0.00000000       0.00000000       0.00000000       0.00000000       0.00000000      -6.17440891
Ac       0.00000000       0.00000000       1.88484848       0.00000000       0.00000000       6.17440891
2
Properties=species:S:1:pos:R:3:forces:R:3 energy=1.6780510810770561 pbc="F F F"
Ac       0.00000000       0.00000000       0.00000000       0.00000000       0.00000000      -5.85117054
Ac       0.00000000       0.00000000       1.94363636       0.00000000       0.00000000       5.85117054
2
Properties=species:S:1:pos:R:3:forces:R:3 energy=1.3287438415191182 pbc="F F F"
Ac       0.00000000       0.00000000       0.00000000       0.00000000       0.00000000      -6.03945684
Ac       0.00000000       0.00000000       2.00242424       0.00000000       0.00000000       6.03945684
2
Properties=species:S:1:pos:R:3:forces:R:3 energy=0.95922158616355 pbc="F F F"
Ac       0.00000000       0.00000000       0.00000000       0.00000000       0.00000000      -6.57999706
Ac       0.00000000       0.00000000       2.06121212       0.00000000       0.00000000       6.57999706
2
Properties=species:S:1:pos:R:3:forces:R:3 energy=0.5757177964394434 pbc="F F F"
Ac       0.00000000       0.00000000       0.00000000       0.00000000       0.00000000      -6.23686981
Ac       0.00000000       0.00000000       2.12000000       0.00000000       0.00000000       6.23686981
2
Properties=species:S:1:pos:R:3:forces:R:3 energy=0.23231468059551802 pbc="F F F"
Ac       0.00000000       0.00000000       0.00000000       0.00000000       0.00000000      -5.49805784
Ac       0.00000000       0.00000000       2.17878788       0.00000000       0.00000000       5.49805784
2
Properties=species:S:1:pos:R:3:forces:R:3 energy=-0.07064318082907733 pbc="F F F"
Ac       0.00000000       0.00000000       0.00000000       0.00000000       0.00000000      -4.78316736
Ac       0.00000000       0.00000000       2.23757576       0.00000000       0.00000000       4.78316736
2
Properties=species:S:1:pos:R:3:forces:R:3 energy=-0.3336589223921702 pbc="F F F"
Ac       0.00000000       0.00000000       0.00000000       0.00000000       0.00000000      -4.21467924
Ac       0.00000000       0.00000000       2.29636364       0.00000000       0.00000000       4.21467924
2
Properties=species:S:1:pos:R:3:forces:R:3 energy=-0.5702667351961175 pbc="F F F"
Ac       0.00000000       0.00000000       0.00000000       0.00000000       0.00000000      -3.87517691
Ac       0.00000000       0.00000000       2.35515152       0.00000000       0.00000000       3.87517691
2
Properties=species:S:1:pos:R:3:forces:R:3 energy=-0.7949753767956232 pbc="F F F"
Ac       0.00000000       0.00000000       0.00000000       0.00000000       0.00000000      -3.80782032
Ac       0.00000000       0.00000000       2.41393939       0.00000000       0.00000000       3.80782032
2
Properties=species:S:1:pos:R:3:forces:R:3 energy=-1.0204596256784992 pbc="F F F"
Ac       0.00000000       0.00000000       0.00000000       0.00000000       0.00000000      -3.86743617
Ac       0.00000000       0.00000000       2.47272727       0.00000000       0.00000000       3.86743617
2
Properties=species:S:1:pos:R:3:forces:R:3 energy=-1.2476049637757203 pbc="F F F"
Ac       0.00000000       0.00000000       0.00000000       0.00000000       0.00000000      -3.83066058
Ac       0.00000000       0.00000000       2.53151515       0.00000000       0.00000000       3.83066058
2
Properties=species:S:1:pos:R:3:forces:R:3 energy=-1.4693602813155313 pbc="F F F"
Ac       0.00000000       0.00000000       0.00000000       0.00000000       0.00000000      -3.72378135
Ac       0.00000000       0.00000000       2.59030303       0.00000000       0.00000000       3.72378135
2
Properties=species:S:1:pos:R:3:forces:R:3 energy=-1.6878020854085012 pbc="F F F"
Ac       0.00000000       0.00000000       0.00000000       0.00000000       0.00000000      -3.72597742
Ac       0.00000000       0.00000000       2.64909091       0.00000000       0.00000000       3.72597742
2
Properties=species:S:1:pos:R:3:forces:R:3 energy=-1.9080127759114915 pbc="F F F"
Ac       0.00000000       0.00000000       0.00000000       0.00000000       0.00000000      -3.75573683
Ac       0.00000000       0.00000000       2.70787879       0.00000000       0.00000000       3.75573683
2
Properties=species:S:1:pos:R:3:forces:R:3 energy=-2.1272526779243335 pbc="F F F"
Ac       0.00000000       0.00000000       0.00000000       0.00000000       0.00000000      -3.68369555
Ac       0.00000000       0.00000000       2.76666667       0.00000000       0.00000000       3.68369555
2
Properties=species:S:1:pos:R:3:forces:R:3 energy=-2.339482791550231 pbc="F F F"
Ac       0.00000000       0.00000000       0.00000000       0.00000000       0.00000000      -3.52808809
Ac       0.00000000       0.00000000       2.82545455       0.00000000       0.00000000       3.52808809
2
Properties=species:S:1:pos:R:3:forces:R:3 energy=-2.5415117377160232 pbc="F F F"
Ac       0.00000000       0.00000000       0.00000000       0.00000000       0.00000000      -3.34280491
Ac       0.00000000       0.00000000       2.88424242       0.00000000       0.00000000       3.34280491
2
Properties=species:S:1:pos:R:3:forces:R:3 energy=-2.7324178695503067 pbc="F F F"
Ac       0.00000000       0.00000000       0.00000000       0.00000000       0.00000000      -3.15215135
Ac       0.00000000       0.00000000       2.94303030       0.00000000       0.00000000       3.15215135
2
Properties=species:S:1:pos:R:3:forces:R:3 energy=-2.9122064355894937 pbc="F F F"
Ac       0.00000000       0.00000000       0.00000000       0.00000000       0.00000000      -2.96501970
Ac       0.00000000       0.00000000       3.00181818       0.00000000       0.00000000       2.96501970
2
Properties=species:S:1:pos:R:3:forces:R:3 energy=-3.0810288326230815 pbc="F F F"
Ac       0.00000000       0.00000000       0.00000000       0.00000000       0.00000000      -2.77735138
Ac       0.00000000       0.00000000       3.06060606       0.00000000       0.00000000       2.77735138
2
Properties=species:S:1:pos:R:3:forces:R:3 energy=-3.2385106454392445 pbc="F F F"
Ac       0.00000000       0.00000000       0.00000000       0.00000000       0.00000000      -2.57761598
Ac       0.00000000       0.00000000       3.11939394       0.00000000       0.00000000       2.57761598
2
Properties=species:S:1:pos:R:3:forces:R:3 energy=-3.3838137703677647 pbc="F F F"
Ac       0.00000000       0.00000000       0.00000000       0.00000000       0.00000000      -2.36407590
Ac       0.00000000       0.00000000       3.17818182       0.00000000       0.00000000       2.36407590
2
Properties=species:S:1:pos:R:3:forces:R:3 energy=-3.5164377171177224 pbc="F F F"
Ac       0.00000000       0.00000000       0.00000000       0.00000000       0.00000000      -2.14886284
Ac       0.00000000       0.00000000       3.23696970       0.00000000       0.00000000       2.14886284
2
Properties=species:S:1:pos:R:3:forces:R:3 energy=-3.636663919638629 pbc="F F F"
Ac       0.00000000       0.00000000       0.00000000       0.00000000       0.00000000      -1.94352627
Ac       0.00000000       0.00000000       3.29575758       0.00000000       0.00000000       1.94352627
2
Properties=species:S:1:pos:R:3:forces:R:3 energy=-3.7452475092469024 pbc="F F F"
Ac       0.00000000       0.00000000       0.00000000       0.00000000       0.00000000      -1.75324750
Ac       0.00000000       0.00000000       3.35454545       0.00000000       0.00000000       1.75324750
2
Properties=species:S:1:pos:R:3:forces:R:3 energy=-3.843124089787955 pbc="F F F"
Ac       0.00000000       0.00000000       0.00000000       0.00000000       0.00000000      -1.57913816
Ac       0.00000000       0.00000000       3.41333333       0.00000000       0.00000000       1.57913816
2
Properties=species:S:1:pos:R:3:forces:R:3 energy=-3.931179331917954 pbc="F F F"
Ac       0.00000000       0.00000000       0.00000000       0.00000000       0.00000000      -1.41838980
Ac       0.00000000       0.00000000       3.47212121       0.00000000       0.00000000       1.41838980
2
Properties=species:S:1:pos:R:3:forces:R:3 energy=-4.010041916407373 pbc="F F F"
Ac       0.00000000       0.00000000       0.00000000       0.00000000       0.00000000      -1.26526511
Ac       0.00000000       0.00000000       3.53090909       0.00000000       0.00000000       1.26526511
2
Properties=species:S:1:pos:R:3:forces:R:3 energy=-4.07999756406834 pbc="F F F"
Ac       0.00000000       0.00000000       0.00000000       0.00000000       0.00000000      -1.11492848
Ac       0.00000000       0.00000000       3.58969697       0.00000000       0.00000000       1.11492848
2
Properties=species:S:1:pos:R:3:forces:R:3 energy=-4.141157924807661 pbc="F F F"
Ac       0.00000000       0.00000000       0.00000000       0.00000000       0.00000000      -0.96613193
Ac       0.00000000       0.00000000       3.64848485       0.00000000       0.00000000       0.96613193
2
Properties=species:S:1:pos:R:3:forces:R:3 energy=-4.193656354958226 pbc="F F F"
Ac       0.00000000       0.00000000       0.00000000       0.00000000       0.00000000      -0.82071704
Ac       0.00000000       0.00000000       3.70727273       0.00000000       0.00000000       0.82071704
2
Properties=species:S:1:pos:R:3:forces:R:3 energy=-4.237776929408782 pbc="F F F"
Ac       0.00000000       0.00000000       0.00000000       0.00000000       0.00000000      -0.68156129
Ac       0.00000000       0.00000000       3.76606061       0.00000000       0.00000000       0.68156129
2
Properties=species:S:1:pos:R:3:forces:R:3 energy=-4.273959534757211 pbc="F F F"
Ac       0.00000000       0.00000000       0.00000000       0.00000000       0.00000000      -0.55095023
Ac       0.00000000       0.00000000       3.82484848       0.00000000       0.00000000       0.55095023
2
Properties=species:S:1:pos:R:3:forces:R:3 energy=-4.302743214387723 pbc="F F F"
Ac       0.00000000       0.00000000       0.00000000       0.00000000       0.00000000      -0.42996439
Ac       0.00000000       0.00000000       3.88363636       0.00000000       0.00000000       0.42996439
2
Properties=species:S:1:pos:R:3:forces:R:3 energy=-4.324702761800109 pbc="F F F"
Ac       0.00000000       0.00000000       0.00000000       0.00000000       0.00000000      -0.31866175
Ac       0.00000000       0.00000000       3.94242424       0.00000000       0.00000000       0.31866175
2
Properties=species:S:1:pos:R:3:forces:R:3 energy=-4.340390356407101 pbc="F F F"
Ac       0.00000000       0.00000000       0.00000000       0.00000000       0.00000000      -0.21650548
Ac       0.00000000       0.00000000       4.00121212       0.00000000       0.00000000       0.21650548
2
Properties=species:S:1:pos:R:3:forces:R:3 energy=-4.350324989089691 pbc="F F F"
Ac       0.00000000       0.00000000       0.00000000       0.00000000       0.00000000      -0.12278814
Ac       0.00000000       0.00000000       4.06000000       0.00000000       0.00000000       0.12278814
2
Properties=species:S:1:pos:R:3:forces:R:3 energy=-4.354983085508901 pbc="F F F"
Ac       0.00000000       0.00000000       0.00000000       0.00000000       0.00000000      -0.03700393
Ac       0.00000000       0.00000000       4.11878788       0.00000000       0.00000000       0.03700393
2
Properties=species:S:1:pos:R:3:forces:R:3 energy=-4.354829213753243 pbc="F F F"
Ac       0.00000000       0.00000000       0.00000000       0.00000000       0.00000000       0.04084808
Ac       0.00000000       0.00000000       4.17757576       0.00000000       0.00000000      -0.04084808
2
Properties=species:S:1:pos:R:3:forces:R:3 energy=-4.350347466892138 pbc="F F F"
Ac       0.00000000       0.00000000       0.00000000       0.00000000       0.00000000       0.11018377
Ac       0.00000000       0.00000000       4.23636364       0.00000000       0.00000000      -0.11018377
2
Properties=species:S:1:pos:R:3:forces:R:3 energy=-4.342060650503841 pbc="F F F"
Ac       0.00000000       0.00000000       0.00000000       0.00000000       0.00000000       0.17008308
Ac       0.00000000       0.00000000       4.29515152       0.00000000       0.00000000      -0.17008308
2
Properties=species:S:1:pos:R:3:forces:R:3 energy=-4.330547887636429 pbc="F F F"
Ac       0.00000000       0.00000000       0.00000000       0.00000000       0.00000000       0.21975182
Ac       0.00000000       0.00000000       4.35393939       0.00000000       0.00000000      -0.21975182
2
Properties=species:S:1:pos:R:3:forces:R:3 energy=-4.316428431687002 pbc="F F F"
Ac       0.00000000       0.00000000       0.00000000       0.00000000       0.00000000       0.25893253
Ac       0.00000000       0.00000000       4.41272727       0.00000000       0.00000000      -0.25893253
2
Properties=species:S:1:pos:R:3:forces:R:3 energy=-4.300300707273159 pbc="F F F"
Ac       0.00000000       0.00000000       0.00000000       0.00000000       0.00000000       0.28808486
Ac       0.00000000       0.00000000       4.47151515       0.00000000       0.00000000      -0.28808486
2
Properties=species:S:1:pos:R:3:forces:R:3 energy=-4.282731330307075 pbc="F F F"
Ac       0.00000000       0.00000000       0.00000000       0.00000000       0.00000000       0.30827862
Ac       0.00000000       0.00000000       4.53030303       0.00000000       0.00000000      -0.30827862
2
Properties=species:S:1:pos:R:3:forces:R:3 energy=-4.264203685610147 pbc="F F F"
Ac       0.00000000       0.00000000       0.00000000       0.00000000       0.00000000       0.32092032
Ac       0.00000000       0.00000000       4.58909091       0.00000000       0.00000000      -0.32092032
2
Properties=species:S:1:pos:R:3:forces:R:3 energy=-4.245118403750148 pbc="F F F"
Ac       0.00000000       0.00000000       0.00000000       0.00000000       0.00000000       0.32748353
Ac       0.00000000       0.00000000       4.64787879       0.00000000       0.00000000      -0.32748353
2
Properties=species:S:1:pos:R:3:forces:R:3 energy=-4.225791491706465 pbc="F F F"
Ac       0.00000000       0.00000000       0.00000000       0.00000000       0.00000000       0.32932013
Ac       0.00000000       0.00000000       4.70666667       0.00000000       0.00000000      -0.32932013
2
Properties=species:S:1:pos:R:3:forces:R:3 energy=-4.2064682181684825 pbc="F F F"
Ac       0.00000000       0.00000000       0.00000000       0.00000000       0.00000000       0.32758877
Ac       0.00000000       0.00000000       4.76545455       0.00000000       0.00000000      -0.32758877
2
Properties=species:S:1:pos:R:3:forces:R:3 energy=-4.187326921897204 pbc="F F F"
Ac       0.00000000       0.00000000       0.00000000       0.00000000       0.00000000       0.32324821
Ac       0.00000000       0.00000000       4.82424242       0.00000000       0.00000000      -0.32324821
2
Properties=species:S:1:pos:R:3:forces:R:3 energy=-4.168501060276128 pbc="F F F"
Ac       0.00000000       0.00000000       0.00000000       0.00000000       0.00000000       0.31706306
Ac       0.00000000       0.00000000       4.88303030       0.00000000       0.00000000      -0.31706306
2
Properties=species:S:1:pos:R:3:forces:R:3 energy=-4.150071942712278 pbc="F F F"
Ac       0.00000000       0.00000000       0.00000000       0.00000000       0.00000000       0.30958295
Ac       0.00000000       0.00000000       4.94181818       0.00000000       0.00000000      -0.30958295
2
Properties=species:S:1:pos:R:3:forces:R:3 energy=-4.132117539088729 pbc="F F F"
Ac       0.00000000       0.00000000       0.00000000       0.00000000       0.00000000       0.30108476
Ac       0.00000000       0.00000000       5.00060606       0.00000000       0.00000000      -0.30108476
2
Properties=species:S:1:pos:R:3:forces:R:3 energy=-4.114690513577122 pbc="F F F"
Ac       0.00000000       0.00000000       0.00000000       0.00000000       0.00000000       0.29153895
Ac       0.00000000       0.00000000       5.05939394       0.00000000       0.00000000      -0.29153895
2
Properties=species:S:1:pos:R:3:forces:R:3 energy=-4.097864942007862 pbc="F F F"
Ac       0.00000000       0.00000000       0.00000000       0.00000000       0.00000000       0.28063056
Ac       0.00000000       0.00000000       5.11818182       0.00000000       0.00000000      -0.28063056
2
Properties=species:S:1:pos:R:3:forces:R:3 energy=-4.081734448871012 pbc="F F F"
Ac       0.00000000       0.00000000       0.00000000       0.00000000       0.00000000       0.26784521
Ac       0.00000000       0.00000000       5.17696970       0.00000000       0.00000000      -0.26784521
2
Properties=species:S:1:pos:R:3:forces:R:3 energy=-4.066423155563987 pbc="F F F"
Ac       0.00000000       0.00000000       0.00000000       0.00000000       0.00000000       0.25262097
Ac       0.00000000       0.00000000       5.23575758       0.00000000       0.00000000      -0.25262097
2
Properties=species:S:1:pos:R:3:forces:R:3 energy=-4.052089030922954 pbc="F F F"
Ac       0.00000000       0.00000000       0.00000000       0.00000000       0.00000000       0.23454559
Ac       0.00000000       0.00000000       5.29454545       0.00000000       0.00000000      -0.23454559
2
Properties=species:S:1:pos:R:3:forces:R:3 energy=-4.038905784082111 pbc="F F F"
Ac       0.00000000       0.00000000       0.00000000       0.00000000       0.00000000       0.21352294
Ac       0.00000000       0.00000000       5.35333333       0.00000000       0.00000000      -0.21352294
2
Properties=species:S:1:pos:R:3:forces:R:3 energy=-4.027037961235504 pbc="F F F"
Ac       0.00000000       0.00000000       0.00000000       0.00000000       0.00000000       0.18986160
Ac       0.00000000       0.00000000       5.41212121       0.00000000       0.00000000      -0.18986160
2
Properties=species:S:1:pos:R:3:forces:R:3 energy=-4.016617650308364 pbc="F F F"
Ac       0.00000000       0.00000000       0.00000000       0.00000000       0.00000000       0.16435525
Ac       0.00000000       0.00000000       5.47090909       0.00000000       0.00000000      -0.16435525
2
Properties=species:S:1:pos:R:3:forces:R:3 energy=-4.007723398751837 pbc="F F F"
Ac       0.00000000       0.00000000       0.00000000       0.00000000       0.00000000       0.13815874
Ac       0.00000000       0.00000000       5.52969697       0.00000000       0.00000000      -0.13815874
2
Properties=species:S:1:pos:R:3:forces:R:3 energy=-4.000359658860027 pbc="F F F"
Ac       0.00000000       0.00000000       0.00000000       0.00000000       0.00000000       0.11269481
Ac       0.00000000       0.00000000       5.58848485       0.00000000       0.00000000      -0.11269481
2
Properties=species:S:1:pos:R:3:forces:R:3 energy=-3.9944334670987547 pbc="F F F"
Ac       0.00000000       0.00000000       0.00000000       0.00000000       0.00000000       0.08943385
Ac       0.00000000       0.00000000       5.64727273       0.00000000       0.00000000      -0.08943385
2
Properties=species:S:1:pos:R:3:forces:R:3 energy=-3.9897761568672827 pbc="F F F"
Ac       0.00000000       0.00000000       0.00000000       0.00000000       0.00000000       0.06969753
Ac       0.00000000       0.00000000       5.70606061       0.00000000       0.00000000      -0.06969753
2
Properties=species:S:1:pos:R:3:forces:R:3 energy=-3.9861486480565675 pbc="F F F"
Ac       0.00000000       0.00000000       0.00000000       0.00000000       0.00000000       0.05438993
Ac       0.00000000       0.00000000       5.76484848       0.00000000       0.00000000      -0.05438993
2
Properties=species:S:1:pos:R:3:forces:R:3 energy=-3.983282950888955 pbc="F F F"
Ac       0.00000000       0.00000000       0.00000000       0.00000000       0.00000000       0.04390840
Ac       0.00000000       0.00000000       5.82363636       0.00000000       0.00000000      -0.04390840
2
Properties=species:S:1:pos:R:3:forces:R:3 energy=-3.9808957090917763 pbc="F F F"
Ac       0.00000000       0.00000000       0.00000000       0.00000000       0.00000000       0.03793708
Ac       0.00000000       0.00000000       5.88242424       0.00000000       0.00000000      -0.03793708
2
Properties=species:S:1:pos:R:3:forces:R:3 energy=-3.9787531827993927 pbc="F F F"
Ac       0.00000000       0.00000000       0.00000000       0.00000000       0.00000000       0.03548744
Ac       0.00000000       0.00000000       5.94121212       0.00000000       0.00000000      -0.03548744
2
Properties=species:S:1:pos:R:3:forces:R:3 energy=-3.976685878449637 pbc="F F F"
Ac       0.00000000       0.00000000       0.00000000       0.00000000       0.00000000       0.03497398
Ac       0.00000000       0.00000000       6.00000000       0.00000000       0.00000000      -0.03497398
