2
Properties=species:S:1:pos:R:3:forces:R:3 energy=-363911.9288657144 pbc="F F F"
Ac       0.00000000       0.00000000       0.00000000       0.00000000       0.00000000 3746054.00000000
Ac       0.00000000       0.00000000       0.18000000       0.00000000       0.00000000 -3746054.00000000
2
Properties=species:S:1:pos:R:3:forces:R:3 energy=-175837.8507407144 pbc="F F F"
Ac       0.00000000       0.00000000       0.00000000       0.00000000       0.00000000 2570148.00000000
Ac       0.00000000       0.00000000       0.23878788       0.00000000       0.00000000 -2570148.00000000
2
Properties=species:S:1:pos:R:3:forces:R:3 energy=-64077.85464696439 pbc="F F F"
Ac       0.00000000       0.00000000       0.00000000       0.00000000       0.00000000 1282769.12500000
Ac       0.00000000       0.00000000       0.29757576       0.00000000       0.00000000 -1282769.12500000
2
Properties=species:S:1:pos:R:3:forces:R:3 energy=-16246.268709464395 pbc="F F F"
Ac       0.00000000       0.00000000       0.00000000       0.00000000       0.00000000  427471.43750000
Ac       0.00000000       0.00000000       0.35636364       0.00000000       0.00000000 -427471.43750000
2
Properties=species:S:1:pos:R:3:forces:R:3 energy=-2866.1307700112698 pbc="F F F"
Ac       0.00000000       0.00000000       0.00000000       0.00000000       0.00000000   98356.85937500
Ac       0.00000000       0.00000000       0.41515152       0.00000000       0.00000000  -98356.85937500
2
Properties=species:S:1:pos:R:3:forces:R:3 energy=-302.8433859653952 pbc="F F F"
Ac       0.00000000       0.00000000       0.00000000       0.00000000       0.00000000   11673.96777344
Ac       0.00000000       0.00000000       0.47393939       0.00000000       0.00000000  -11673.96777344
2
Properties=species:S:1:pos:R:3:forces:R:3 energy=-21.790647763026673 pbc="F F F"
Ac       0.00000000       0.00000000       0.00000000       0.00000000       0.00000000    1234.28894043
Ac       0.00000000       0.00000000       0.53272727       0.00000000       0.00000000   -1234.28894043
2
Properties=species:S:1:pos:R:3:forces:R:3 energy=6.938990349315025 pbc="F F F"
Ac       0.00000000       0.00000000       0.00000000       0.00000000       0.00000000     884.33990479
Ac       0.00000000       0.00000000       0.59151515       0.00000000       0.00000000    -884.33990479
2
Properties=species:S:1:pos:R:3:forces:R:3 energy=41.78467728719422 pbc="F F F"
Ac       0.00000000       0.00000000       0.00000000       0.00000000       0.00000000     121.42237854
Ac       0.00000000       0.00000000       0.65030303       0.00000000       0.00000000    -121.42237854
2
Properties=species:S:1:pos:R:3:forces:R:3 energy=37.138772796863755 pbc="F F F"
Ac       0.00000000       0.00000000       0.00000000       0.00000000       0.00000000    -147.64163208
Ac       0.00000000       0.00000000       0.70909091       0.00000000       0.00000000     147.64163208
2
Properties=species:S:1:pos:R:3:forces:R:3 energy=27.85383023326707 pbc="F F F"
Ac       0.00000000       0.00000000       0.00000000       0.00000000       0.00000000    -141.49114990
Ac       0.00000000       0.00000000       0.76787879       0.00000000       0.00000000     141.49114990
2
Properties=species:S:1:pos:R:3:forces:R:3 energy=21.126531598065114 pbc="F F F"
Ac       0.00000000       0.00000000       0.00000000       0.00000000       0.00000000    -104.26603699
Ac       0.00000000       0.00000000       0.82666667       0.00000000       0.00000000     104.26603699
2
Properties=species:S:1:pos:R:3:forces:R:3 energy=15.689908176817355 pbc="F F F"
Ac       0.00000000       0.00000000       0.00000000       0.00000000       0.00000000     -81.20557404
Ac       0.00000000       0.00000000       0.88545455       0.00000000       0.00000000      81.20557404
2
Properties=species:S:1:pos:R:3:forces:R:3 energy=11.538836843767346 pbc="F F F"
Ac       0.00000000       0.00000000       0.00000000       0.00000000       0.00000000     -64.53844452
Ac       0.00000000       0.00000000       0.94424242       0.00000000       0.00000000      64.53844452
2
Properties=species:S:1:pos:R:3:forces:R:3 energy=7.992149042701711 pbc="F F F"
Ac       0.00000000       0.00000000       0.00000000       0.00000000       0.00000000     -59.13121414
Ac       0.00000000       0.00000000       1.00303030       0.00000000       0.00000000      59.13121414
2
Properties=species:S:1:pos:R:3:forces:R:3 energy=4.744563172535193 pbc="F F F"
Ac       0.00000000       0.00000000       0.00000000       0.00000000       0.00000000     -51.16087723
Ac       0.00000000       0.00000000       1.06181818       0.00000000       0.00000000      51.16087723
2
Properties=species:S:1:pos:R:3:forces:R:3 energy=2.1994892291674 pbc="F F F"
Ac       0.00000000       0.00000000       0.00000000       0.00000000       0.00000000     -31.77626038
Ac       0.00000000       0.00000000       1.12060606       0.00000000       0.00000000      31.77626038
2
Properties=species:S:1:pos:R:3:forces:R:3 energy=0.8426983917975515 pbc="F F F"
Ac       0.00000000       0.00000000       0.00000000       0.00000000       0.00000000     -17.85338783
Ac       0.00000000       0.00000000       1.17939394       0.00000000       0.00000000      17.85338783
2
Properties=species:S:1:pos:R:3:forces:R:3 energy=-0.3449600101656642 pbc="F F F"
Ac       0.00000000       0.00000000       0.00000000       0.00000000       0.00000000     -15.64741898
Ac       0.00000000       0.00000000       1.23818182       0.00000000       0.00000000      15.64741898
2
Properties=species:S:1:pos:R:3:forces:R:3 energy=-0.7622591193964673 pbc="F F F"
Ac       0.00000000       0.00000000       0.00000000       0.00000000       0.00000000       0.37275609
Ac       0.00000000       0.00000000       1.29696970       0.00000000       0.00000000      -0.37275609
2
Properties=species:S:1:pos:R:3:forces:R:3 energy=-0.31956306155325737 pbc="F F F"
Ac       0.00000000       0.00000000       0.00000000       0.00000000       0.00000000      13.65045261
Ac       0.00000000       0.00000000       1.35575758       0.00000000       0.00000000     -13.65045261
2
Properties=species:S:1:pos:R:3:forces:R:3 energy=0.5792643325313456 pbc="F F F"
Ac       0.00000000       0.00000000       0.00000000       0.00000000       0.00000000      14.69615746
Ac       0.00000000       0.00000000       1.41454545       0.00000000       0.00000000     -14.69615746
2
Properties=species:S:1:pos:R:3:forces:R:3 energy=1.3168839793261875 pbc="F F F"
Ac       0.00000000       0.00000000       0.00000000       0.00000000       0.00000000      11.33421898
Ac       0.00000000       0.00000000       1.47333333       0.00000000       0.00000000     -11.33421898
2
Properties=species:S:1:pos:R:3:forces:R:3 energy=1.9843852542013807 pbc="F F F"
Ac       0.00000000       0.00000000       0.00000000       0.00000000       0.00000000      10.59207439
Ac       0.00000000       0.00000000       1.53212121       0.00000000       0.00000000     -10.59207439
2
Properties=species:S:1:pos:R:3:forces:R:3 energy=2.4729749365037987 pbc="F F F"
Ac       0.00000000       0.00000000       0.00000000       0.00000000       0.00000000       5.98197937
Ac       0.00000000       0.00000000       1.59090909       0.00000000       0.00000000      -5.98197937
2
Properties=species:S:1:pos:R:3:forces:R:3 energy=2.7446215875536515 pbc="F F F"
Ac       0.00000000       0.00000000       0.00000000       0.00000000       0.00000000       3.26479793
Ac       0.00000000       0.00000000       1.64969697       0.00000000       0.00000000      -3.26479793
2
Properties=species:S:1:pos:R:3:forces:R:3 energy=2.8249705647637278 pbc="F F F"
Ac       0.00000000       0.00000000       0.00000000       0.00000000       0.00000000      -0.73149818
Ac       0.00000000       0.00000000       1.70848485       0.00000000       0.00000000       0.73149818
2
Properties=species:S:1:pos:R:3:forces:R:3 energy=2.6797154940054093 pbc="F F F"
Ac       0.00000000       0.00000000       0.00000000       0.00000000       0.00000000      -3.94634223
Ac       0.00000000       0.00000000       1.76727273       0.00000000       0.00000000       3.94634223
2
Properties=species:S:1:pos:R:3:forces:R:3 energy=2.3893475806418736 pbc="F F F"
Ac       0.00000000       0.00000000       0.00000000       0.00000000       0.00000000      -5.69324112
Ac       0.00000000       0.00000000       1.82606061       0.00000000       0.00000000       5.69324112
2
Properties=species:S:1:pos:R:3:forces:R:3 energy=2.0267601321000686 pbc="F F F"
Ac       0.00000000       0.00000000       0.00000000       0.00000000       0.00000000      -6.17440987
Ac       0.00000000       0.00000000       1.88484848       0.00000000       0.00000000       6.17440987
2
Properties=species:S:1:pos:R:3:forces:R:3 energy=1.6780520347513725 pbc="F F F"
Ac       0.00000000       0.00000000       0.00000000       0.00000000       0.00000000      -5.85116959
Ac       0.00000000       0.00000000       1.94363636       0.00000000       0.00000000       5.85116959
2
Properties=species:S:1:pos:R:3:forces:R:3 energy=1.3287428878448018 pbc="F F F"
Ac       0.00000000       0.00000000       0.00000000       0.00000000       0.00000000      -6.03945303
Ac       0.00000000       0.00000000       2.00242424       0.00000000       0.00000000       6.03945303
2
Properties=species:S:1:pos:R:3:forces:R:3 energy=0.9592225398378664 pbc="F F F"
Ac       0.00000000       0.00000000       0.00000000       0.00000000       0.00000000      -6.57999372
Ac       0.00000000       0.00000000       2.06121212       0.00000000       0.00000000       6.57999372
2
Properties=species:S:1:pos:R:3:forces:R:3 energy=0.5757206574623926 pbc="F F F"
Ac       0.00000000       0.00000000       0.00000000       0.00000000       0.00000000      -6.23687029
Ac       0.00000000       0.00000000       2.12000000       0.00000000       0.00000000       6.23687029
2
Properties=species:S:1:pos:R:3:forces:R:3 energy=0.23231468059551802 pbc="F F F"
Ac       0.00000000       0.00000000       0.00000000       0.00000000       0.00000000      -5.49805975
Ac       0.00000000       0.00000000       2.17878788       0.00000000       0.00000000       5.49805975
2
Properties=species:S:1:pos:R:3:forces:R:3 energy=-0.07064508817771015 pbc="F F F"
Ac       0.00000000       0.00000000       0.00000000       0.00000000       0.00000000      -4.78316593
Ac       0.00000000       0.00000000       2.23757576       0.00000000       0.00000000       4.78316593
2
Properties=species:S:1:pos:R:3:forces:R:3 energy=-0.3336598760664866 pbc="F F F"
Ac       0.00000000       0.00000000       0.00000000       0.00000000       0.00000000      -4.21468210
Ac       0.00000000       0.00000000       2.29636364       0.00000000       0.00000000       4.21468210
2
Properties=species:S:1:pos:R:3:forces:R:3 energy=-0.5702667351961175 pbc="F F F"
Ac       0.00000000       0.00000000       0.00000000       0.00000000       0.00000000      -3.87517786
Ac       0.00000000       0.00000000       2.35515152       0.00000000       0.00000000       3.87517786
2
Properties=species:S:1:pos:R:3:forces:R:3 energy=-0.7949753767956232 pbc="F F F"
Ac       0.00000000       0.00000000       0.00000000       0.00000000       0.00000000      -3.80782199
Ac       0.00000000       0.00000000       2.41393939       0.00000000       0.00000000       3.80782199
2
Properties=species:S:1:pos:R:3:forces:R:3 energy=-1.0204605793528156 pbc="F F F"
Ac       0.00000000       0.00000000       0.00000000       0.00000000       0.00000000      -3.86743665
Ac       0.00000000       0.00000000       2.47272727       0.00000000       0.00000000       3.86743665
2
Properties=species:S:1:pos:R:3:forces:R:3 energy=-1.2476049637757203 pbc="F F F"
Ac       0.00000000       0.00000000       0.00000000       0.00000000       0.00000000      -3.83066082
Ac       0.00000000       0.00000000       2.53151515       0.00000000       0.00000000       3.83066082
2
Properties=species:S:1:pos:R:3:forces:R:3 energy=-1.4693602813155313 pbc="F F F"
Ac       0.00000000       0.00000000       0.00000000       0.00000000       0.00000000      -3.72378230
Ac       0.00000000       0.00000000       2.59030303       0.00000000       0.00000000       3.72378230
2
Properties=species:S:1:pos:R:3:forces:R:3 energy=-1.6878020854085012 pbc="F F F"
Ac       0.00000000       0.00000000       0.00000000       0.00000000       0.00000000      -3.72597599
Ac       0.00000000       0.00000000       2.64909091       0.00000000       0.00000000       3.72597599
2
Properties=species:S:1:pos:R:3:forces:R:3 energy=-1.9080127759114915 pbc="F F F"
Ac       0.00000000       0.00000000       0.00000000       0.00000000       0.00000000      -3.75573683
Ac       0.00000000       0.00000000       2.70787879       0.00000000       0.00000000       3.75573683
2
Properties=species:S:1:pos:R:3:forces:R:3 energy=-2.1272526779243335 pbc="F F F"
Ac       0.00000000       0.00000000       0.00000000       0.00000000       0.00000000      -3.68369579
Ac       0.00000000       0.00000000       2.76666667       0.00000000       0.00000000       3.68369579
2
Properties=species:S:1:pos:R:3:forces:R:3 energy=-2.339482791550231 pbc="F F F"
Ac       0.00000000       0.00000000       0.00000000       0.00000000       0.00000000      -3.52808785
Ac       0.00000000       0.00000000       2.82545455       0.00000000       0.00000000       3.52808785
2
Properties=species:S:1:pos:R:3:forces:R:3 energy=-2.5415122145531814 pbc="F F F"
Ac       0.00000000       0.00000000       0.00000000       0.00000000       0.00000000      -3.34280539
Ac       0.00000000       0.00000000       2.88424242       0.00000000       0.00000000       3.34280539
2
Properties=species:S:1:pos:R:3:forces:R:3 energy=-2.732418823224623 pbc="F F F"
Ac       0.00000000       0.00000000       0.00000000       0.00000000       0.00000000      -3.15215087
Ac       0.00000000       0.00000000       2.94303030       0.00000000       0.00000000       3.15215087
2
Properties=species:S:1:pos:R:3:forces:R:3 energy=-2.9122064355894937 pbc="F F F"
Ac       0.00000000       0.00000000       0.00000000       0.00000000       0.00000000      -2.96501970
Ac       0.00000000       0.00000000       3.00181818       0.00000000       0.00000000       2.96501970
2
Properties=species:S:1:pos:R:3:forces:R:3 energy=-3.081027402111607 pbc="F F F"
Ac       0.00000000       0.00000000       0.00000000       0.00000000       0.00000000      -2.77735233
Ac       0.00000000       0.00000000       3.06060606       0.00000000       0.00000000       2.77735233
2
Properties=species:S:1:pos:R:3:forces:R:3 energy=-3.238511599113561 pbc="F F F"
Ac       0.00000000       0.00000000       0.00000000       0.00000000       0.00000000      -2.57761550
Ac       0.00000000       0.00000000       3.11939394       0.00000000       0.00000000       2.57761550
2
Properties=species:S:1:pos:R:3:forces:R:3 energy=-3.3838128166934482 pbc="F F F"
Ac       0.00000000       0.00000000       0.00000000       0.00000000       0.00000000      -2.36407661
Ac       0.00000000       0.00000000       3.17818182       0.00000000       0.00000000       2.36407661
2
Properties=species:S:1:pos:R:3:forces:R:3 energy=-3.516439147629197 pbc="F F F"
Ac       0.00000000       0.00000000       0.00000000       0.00000000       0.00000000      -2.14886260
Ac       0.00000000       0.00000000       3.23696970       0.00000000       0.00000000       2.14886260
2
Properties=species:S:1:pos:R:3:forces:R:3 energy=-3.6366634428014706 pbc="F F F"
Ac       0.00000000       0.00000000       0.00000000       0.00000000       0.00000000      -1.94352615
Ac       0.00000000       0.00000000       3.29575758       0.00000000       0.00000000       1.94352615
2
Properties=species:S:1:pos:R:3:forces:R:3 energy=-3.7452479860840606 pbc="F F F"
Ac       0.00000000       0.00000000       0.00000000       0.00000000       0.00000000      -1.75324798
Ac       0.00000000       0.00000000       3.35454545       0.00000000       0.00000000       1.75324798
2
Properties=species:S:1:pos:R:3:forces:R:3 energy=-3.843124566625113 pbc="F F F"
Ac       0.00000000       0.00000000       0.00000000       0.00000000       0.00000000      -1.57913864
Ac       0.00000000       0.00000000       3.41333333       0.00000000       0.00000000       1.57913864
2
Properties=species:S:1:pos:R:3:forces:R:3 energy=-3.9311798087551124 pbc="F F F"
Ac       0.00000000       0.00000000       0.00000000       0.00000000       0.00000000      -1.41838968
Ac       0.00000000       0.00000000       3.47212121       0.00000000       0.00000000       1.41838968
2
Properties=species:S:1:pos:R:3:forces:R:3 energy=-4.010041916407373 pbc="F F F"
Ac       0.00000000       0.00000000       0.00000000       0.00000000       0.00000000      -1.26526546
Ac       0.00000000       0.00000000       3.53090909       0.00000000       0.00000000       1.26526546
2
Properties=species:S:1:pos:R:3:forces:R:3 energy=-4.07999756406834 pbc="F F F"
Ac       0.00000000       0.00000000       0.00000000       0.00000000       0.00000000      -1.11492872
Ac       0.00000000       0.00000000       3.58969697       0.00000000       0.00000000       1.11492872
2
Properties=species:S:1:pos:R:3:forces:R:3 energy=-4.141158388973531 pbc="F F F"
Ac       0.00000000       0.00000000       0.00000000       0.00000000       0.00000000      -0.96613294
Ac       0.00000000       0.00000000       3.64848485       0.00000000       0.00000000       0.96613294
2
Properties=species:S:1:pos:R:3:forces:R:3 energy=-4.193657308632543 pbc="F F F"
Ac       0.00000000       0.00000000       0.00000000       0.00000000       0.00000000      -0.82071733
Ac       0.00000000       0.00000000       3.70727273       0.00000000       0.00000000       0.82071733
2
Properties=species:S:1:pos:R:3:forces:R:3 energy=-4.237776929408782 pbc="F F F"
Ac       0.00000000       0.00000000       0.00000000       0.00000000       0.00000000      -0.68156159
Ac       0.00000000       0.00000000       3.76606061       0.00000000       0.00000000       0.68156159
2
Properties=species:S:1:pos:R:3:forces:R:3 energy=-4.273960011594369 pbc="F F F"
Ac       0.00000000       0.00000000       0.00000000       0.00000000       0.00000000      -0.55095035
Ac       0.00000000       0.00000000       3.82484848       0.00000000       0.00000000       0.55095035
2
Properties=species:S:1:pos:R:3:forces:R:3 energy=-4.302743214387723 pbc="F F F"
Ac       0.00000000       0.00000000       0.00000000       0.00000000       0.00000000      -0.42996430
Ac       0.00000000       0.00000000       3.88363636       0.00000000       0.00000000       0.42996430
2
Properties=species:S:1:pos:R:3:forces:R:3 energy=-4.324703238637267 pbc="F F F"
Ac       0.00000000       0.00000000       0.00000000       0.00000000       0.00000000      -0.31866151
Ac       0.00000000       0.00000000       3.94242424       0.00000000       0.00000000       0.31866151
2
Properties=species:S:1:pos:R:3:forces:R:3 energy=-4.340392263755734 pbc="F F F"
Ac       0.00000000       0.00000000       0.00000000       0.00000000       0.00000000      -0.21650575
Ac       0.00000000       0.00000000       4.00121212       0.00000000       0.00000000       0.21650575
2
Properties=species:S:1:pos:R:3:forces:R:3 energy=-4.3503268964383235 pbc="F F F"
Ac       0.00000000       0.00000000       0.00000000       0.00000000       0.00000000      -0.12278827
Ac       0.00000000       0.00000000       4.06000000       0.00000000       0.00000000       0.12278827
2
Properties=species:S:1:pos:R:3:forces:R:3 energy=-4.354983562346059 pbc="F F F"
Ac       0.00000000       0.00000000       0.00000000       0.00000000       0.00000000      -0.03700478
Ac       0.00000000       0.00000000       4.11878788       0.00000000       0.00000000       0.03700478
2
Properties=species:S:1:pos:R:3:forces:R:3 energy=-4.354827783241769 pbc="F F F"
Ac       0.00000000       0.00000000       0.00000000       0.00000000       0.00000000       0.04084738
Ac       0.00000000       0.00000000       4.17757576       0.00000000       0.00000000      -0.04084738
2
Properties=species:S:1:pos:R:3:forces:R:3 energy=-4.350347466892138 pbc="F F F"
Ac       0.00000000       0.00000000       0.00000000       0.00000000       0.00000000       0.11018288
Ac       0.00000000       0.00000000       4.23636364       0.00000000       0.00000000      -0.11018288
2
Properties=species:S:1:pos:R:3:forces:R:3 energy=-4.3420616041781575 pbc="F F F"
Ac       0.00000000       0.00000000       0.00000000       0.00000000       0.00000000       0.17008257
Ac       0.00000000       0.00000000       4.29515152       0.00000000       0.00000000      -0.17008257
2
Properties=species:S:1:pos:R:3:forces:R:3 energy=-4.330547887636429 pbc="F F F"
Ac       0.00000000       0.00000000       0.00000000       0.00000000       0.00000000       0.21975072
Ac       0.00000000       0.00000000       4.35393939       0.00000000       0.00000000      -0.21975072
2
Properties=species:S:1:pos:R:3:forces:R:3 energy=-4.3164274780126854 pbc="F F F"
Ac       0.00000000       0.00000000       0.00000000       0.00000000       0.00000000       0.25893304
Ac       0.00000000       0.00000000       4.41272727       0.00000000       0.00000000      -0.25893304
2
Properties=species:S:1:pos:R:3:forces:R:3 energy=-4.300301660947476 pbc="F F F"
Ac       0.00000000       0.00000000       0.00000000       0.00000000       0.00000000       0.28808618
Ac       0.00000000       0.00000000       4.47151515       0.00000000       0.00000000      -0.28808618
2
Properties=species:S:1:pos:R:3:forces:R:3 energy=-4.282730853469917 pbc="F F F"
Ac       0.00000000       0.00000000       0.00000000       0.00000000       0.00000000       0.30827904
Ac       0.00000000       0.00000000       4.53030303       0.00000000       0.00000000      -0.30827904
2
Properties=species:S:1:pos:R:3:forces:R:3 energy=-4.264203685610147 pbc="F F F"
Ac       0.00000000       0.00000000       0.00000000       0.00000000       0.00000000       0.32092053
Ac       0.00000000       0.00000000       4.58909091       0.00000000       0.00000000      -0.32092053
2
Properties=species:S:1:pos:R:3:forces:R:3 energy=-4.245119834261622 pbc="F F F"
Ac       0.00000000       0.00000000       0.00000000       0.00000000       0.00000000       0.32748485
Ac       0.00000000       0.00000000       4.64787879       0.00000000       0.00000000      -0.32748485
2
Properties=species:S:1:pos:R:3:forces:R:3 energy=-4.225791968543623 pbc="F F F"
Ac       0.00000000       0.00000000       0.00000000       0.00000000       0.00000000       0.32932112
Ac       0.00000000       0.00000000       4.70666667       0.00000000       0.00000000      -0.32932112
2
Properties=species:S:1:pos:R:3:forces:R:3 energy=-4.206469648679957 pbc="F F F"
Ac       0.00000000       0.00000000       0.00000000       0.00000000       0.00000000       0.32758835
Ac       0.00000000       0.00000000       4.76545455       0.00000000       0.00000000      -0.32758835
2
Properties=species:S:1:pos:R:3:forces:R:3 energy=-4.187326921897204 pbc="F F F"
Ac       0.00000000       0.00000000       0.00000000       0.00000000       0.00000000       0.32324606
Ac       0.00000000       0.00000000       4.82424242       0.00000000       0.00000000      -0.32324606
2
Properties=species:S:1:pos:R:3:forces:R:3 energy=-4.168501537113286 pbc="F F F"
Ac       0.00000000       0.00000000       0.00000000       0.00000000       0.00000000       0.31706417
Ac       0.00000000       0.00000000       4.88303030       0.00000000       0.00000000      -0.31706417
2
Properties=species:S:1:pos:R:3:forces:R:3 energy=-4.150073373223752 pbc="F F F"
Ac       0.00000000       0.00000000       0.00000000       0.00000000       0.00000000       0.30958241
Ac       0.00000000       0.00000000       4.94181818       0.00000000       0.00000000      -0.30958241
2
Properties=species:S:1:pos:R:3:forces:R:3 energy=-4.13211992327452 pbc="F F F"
Ac       0.00000000       0.00000000       0.00000000       0.00000000       0.00000000       0.30108380
Ac       0.00000000       0.00000000       5.00060606       0.00000000       0.00000000      -0.30108380
2
Properties=species:S:1:pos:R:3:forces:R:3 energy=-4.114692897762913 pbc="F F F"
Ac       0.00000000       0.00000000       0.00000000       0.00000000       0.00000000       0.29153964
Ac       0.00000000       0.00000000       5.05939394       0.00000000       0.00000000      -0.29153964
2
Properties=species:S:1:pos:R:3:forces:R:3 energy=-4.097867326193653 pbc="F F F"
Ac       0.00000000       0.00000000       0.00000000       0.00000000       0.00000000       0.28063211
Ac       0.00000000       0.00000000       5.11818182       0.00000000       0.00000000      -0.28063211
2
Properties=species:S:1:pos:R:3:forces:R:3 energy=-4.081735866711198 pbc="F F F"
Ac       0.00000000       0.00000000       0.00000000       0.00000000       0.00000000       0.26784325
Ac       0.00000000       0.00000000       5.17696970       0.00000000       0.00000000      -0.26784325
2
Properties=species:S:1:pos:R:3:forces:R:3 energy=-4.0664222018896705 pbc="F F F"
Ac       0.00000000       0.00000000       0.00000000       0.00000000       0.00000000       0.25261915
Ac       0.00000000       0.00000000       5.23575758       0.00000000       0.00000000      -0.25261915
2
Properties=species:S:1:pos:R:3:forces:R:3 energy=-4.052089030922954 pbc="F F F"
Ac       0.00000000       0.00000000       0.00000000       0.00000000       0.00000000       0.23454568
Ac       0.00000000       0.00000000       5.29454545       0.00000000       0.00000000      -0.23454568
2
Properties=species:S:1:pos:R:3:forces:R:3 energy=-4.038905771410822 pbc="F F F"
Ac       0.00000000       0.00000000       0.00000000       0.00000000       0.00000000       0.21352285
Ac       0.00000000       0.00000000       5.35333333       0.00000000       0.00000000      -0.21352285
2
Properties=species:S:1:pos:R:3:forces:R:3 energy=-4.02703891490982 pbc="F F F"
Ac       0.00000000       0.00000000       0.00000000       0.00000000       0.00000000       0.18986288
Ac       0.00000000       0.00000000       5.41212121       0.00000000       0.00000000      -0.18986288
2
Properties=species:S:1:pos:R:3:forces:R:3 energy=-4.016618127145522 pbc="F F F"
Ac       0.00000000       0.00000000       0.00000000       0.00000000       0.00000000       0.16435811
Ac       0.00000000       0.00000000       5.47090909       0.00000000       0.00000000      -0.16435811
2
Properties=species:S:1:pos:R:3:forces:R:3 energy=-4.007724816592023 pbc="F F F"
Ac       0.00000000       0.00000000       0.00000000       0.00000000       0.00000000       0.13816001
Ac       0.00000000       0.00000000       5.52969697       0.00000000       0.00000000      -0.13816001
2
Properties=species:S:1:pos:R:3:forces:R:3 energy=-4.000360612534344 pbc="F F F"
Ac       0.00000000       0.00000000       0.00000000       0.00000000       0.00000000       0.11269577
Ac       0.00000000       0.00000000       5.58848485       0.00000000       0.00000000      -0.11269577
2
Properties=species:S:1:pos:R:3:forces:R:3 energy=-3.994436328121704 pbc="F F F"
Ac       0.00000000       0.00000000       0.00000000       0.00000000       0.00000000       0.08944103
Ac       0.00000000       0.00000000       5.64727273       0.00000000       0.00000000      -0.08944103
2
Properties=species:S:1:pos:R:3:forces:R:3 energy=-3.9897761315247053 pbc="F F F"
Ac       0.00000000       0.00000000       0.00000000       0.00000000       0.00000000       0.06969559
Ac       0.00000000       0.00000000       5.70606061       0.00000000       0.00000000      -0.06969559
2
Properties=species:S:1:pos:R:3:forces:R:3 energy=-3.9861481712194093 pbc="F F F"
Ac       0.00000000       0.00000000       0.00000000       0.00000000       0.00000000       0.05438739
Ac       0.00000000       0.00000000       5.76484848       0.00000000       0.00000000      -0.05438739
2
Properties=species:S:1:pos:R:3:forces:R:3 energy=-3.983284858237588 pbc="F F F"
Ac       0.00000000       0.00000000       0.00000000       0.00000000       0.00000000       0.04390543
Ac       0.00000000       0.00000000       5.82363636       0.00000000       0.00000000      -0.04390543
2
Properties=species:S:1:pos:R:3:forces:R:3 energy=-3.980896173257646 pbc="F F F"
Ac       0.00000000       0.00000000       0.00000000       0.00000000       0.00000000       0.03793760
Ac       0.00000000       0.00000000       5.88242424       0.00000000       0.00000000      -0.03793760
2
Properties=species:S:1:pos:R:3:forces:R:3 energy=-3.978753659636551 pbc="F F F"
Ac       0.00000000       0.00000000       0.00000000       0.00000000       0.00000000       0.03548738
Ac       0.00000000       0.00000000       5.94121212       0.00000000       0.00000000      -0.03548738
2
Properties=species:S:1:pos:R:3:forces:R:3 energy=-3.976688262635428 pbc="F F F"
Ac       0.00000000       0.00000000       0.00000000       0.00000000       0.00000000       0.03497398
Ac       0.00000000       0.00000000       6.00000000       0.00000000       0.00000000      -0.03497398
