2
Properties=species:S:1:pos:R:3:forces:R:3 energy=55300.3711581799 pbc="F F F"
Ag       0.00000000       0.00000000       0.00000000       0.00000000       0.00000000 -612987.68750000
Ag       0.00000000       0.00000000       0.18000000       0.00000000       0.00000000  612987.68750000
2
Properties=species:S:1:pos:R:3:forces:R:3 energy=24778.515689429896 pbc="F F F"
Ag       0.00000000       0.00000000       0.00000000       0.00000000       0.00000000 -411113.50000000
Ag       0.00000000       0.00000000       0.23878788       0.00000000       0.00000000  411113.50000000
2
Properties=species:S:1:pos:R:3:forces:R:3 energy=8245.207095679898 pbc="F F F"
Ag       0.00000000       0.00000000       0.00000000       0.00000000       0.00000000 -148140.23437500
Ag       0.00000000       0.00000000       0.29757576       0.00000000       0.00000000  148140.23437500
2
Properties=species:S:1:pos:R:3:forces:R:3 energy=2576.033267558065 pbc="F F F"
Ag       0.00000000       0.00000000       0.00000000       0.00000000       0.00000000  -54281.36718750
Ag       0.00000000       0.00000000       0.35636364       0.00000000       0.00000000   54281.36718750
2
Properties=species:S:1:pos:R:3:forces:R:3 energy=828.7614780136192 pbc="F F F"
Ag       0.00000000       0.00000000       0.00000000       0.00000000       0.00000000  -12090.97851562
Ag       0.00000000       0.00000000       0.41515152       0.00000000       0.00000000   12090.97851562
2
Properties=species:S:1:pos:R:3:forces:R:3 energy=365.2455478536771 pbc="F F F"
Ag       0.00000000       0.00000000       0.00000000       0.00000000       0.00000000   -4956.11230469
Ag       0.00000000       0.00000000       0.47393939       0.00000000       0.00000000    4956.11230469
2
Properties=species:S:1:pos:R:3:forces:R:3 energy=172.8955417786719 pbc="F F F"
Ag       0.00000000       0.00000000       0.00000000       0.00000000       0.00000000   -2115.99218750
Ag       0.00000000       0.00000000       0.53272727       0.00000000       0.00000000    2115.99218750
2
Properties=species:S:1:pos:R:3:forces:R:3 energy=87.83504072755645 pbc="F F F"
Ag       0.00000000       0.00000000       0.00000000       0.00000000       0.00000000    -954.54492188
Ag       0.00000000       0.00000000       0.59151515       0.00000000       0.00000000     954.54492188
2
Properties=species:S:1:pos:R:3:forces:R:3 energy=49.34275412779091 pbc="F F F"
Ag       0.00000000       0.00000000       0.00000000       0.00000000       0.00000000    -408.18087769
Ag       0.00000000       0.00000000       0.65030303       0.00000000       0.00000000     408.18087769
2
Properties=species:S:1:pos:R:3:forces:R:3 energy=35.17020405308778 pbc="F F F"
Ag       0.00000000       0.00000000       0.00000000       0.00000000       0.00000000    -131.32897949
Ag       0.00000000       0.00000000       0.70909091       0.00000000       0.00000000     131.32897949
2
Properties=species:S:1:pos:R:3:forces:R:3 energy=33.59622582542049 pbc="F F F"
Ag       0.00000000       0.00000000       0.00000000       0.00000000       0.00000000      16.39806938
Ag       0.00000000       0.00000000       0.76787879       0.00000000       0.00000000     -16.39806938
2
Properties=species:S:1:pos:R:3:forces:R:3 energy=41.96521033610441 pbc="F F F"
Ag       0.00000000       0.00000000       0.00000000       0.00000000       0.00000000     508.96862793
Ag       0.00000000       0.00000000       0.82666667       0.00000000       0.00000000    -508.96862793
2
Properties=species:S:1:pos:R:3:forces:R:3 energy=66.84996492566167 pbc="F F F"
Ag       0.00000000       0.00000000       0.00000000       0.00000000       0.00000000     234.35479736
Ag       0.00000000       0.00000000       0.88545455       0.00000000       0.00000000    -234.35479736
2
Properties=species:S:1:pos:R:3:forces:R:3 energy=73.48541777271312 pbc="F F F"
Ag       0.00000000       0.00000000       0.00000000       0.00000000       0.00000000      22.17662239
Ag       0.00000000       0.00000000       0.94424242       0.00000000       0.00000000     -22.17662239
2
Properties=species:S:1:pos:R:3:forces:R:3 energy=71.5199034279499 pbc="F F F"
Ag       0.00000000       0.00000000       0.00000000       0.00000000       0.00000000     -65.08782959
Ag       0.00000000       0.00000000       1.00303030       0.00000000       0.00000000      65.08782959
2
Properties=species:S:1:pos:R:3:forces:R:3 energy=68.18293703357989 pbc="F F F"
Ag       0.00000000       0.00000000       0.00000000       0.00000000       0.00000000     -46.90484619
Ag       0.00000000       0.00000000       1.06181818       0.00000000       0.00000000      46.90484619
2
Properties=species:S:1:pos:R:3:forces:R:3 energy=64.5523384803461 pbc="F F F"
Ag       0.00000000       0.00000000       0.00000000       0.00000000       0.00000000     -81.72459412
Ag       0.00000000       0.00000000       1.12060606       0.00000000       0.00000000      81.72459412
2
Properties=species:S:1:pos:R:3:forces:R:3 energy=58.744719340828254 pbc="F F F"
Ag       0.00000000       0.00000000       0.00000000       0.00000000       0.00000000    -113.34423828
Ag       0.00000000       0.00000000       1.17939394       0.00000000       0.00000000     113.34423828
2
Properties=species:S:1:pos:R:3:forces:R:3 energy=52.035382606527385 pbc="F F F"
Ag       0.00000000       0.00000000       0.00000000       0.00000000       0.00000000    -125.45292664
Ag       0.00000000       0.00000000       1.23818182       0.00000000       0.00000000     125.45292664
2
Properties=species:S:1:pos:R:3:forces:R:3 energy=44.38370187827746 pbc="F F F"
Ag       0.00000000       0.00000000       0.00000000       0.00000000       0.00000000    -134.85421753
Ag       0.00000000       0.00000000       1.29696970       0.00000000       0.00000000     134.85421753
2
Properties=species:S:1:pos:R:3:forces:R:3 energy=36.67437426224754 pbc="F F F"
Ag       0.00000000       0.00000000       0.00000000       0.00000000       0.00000000    -127.62923431
Ag       0.00000000       0.00000000       1.35575758       0.00000000       0.00000000     127.62923431
2
Properties=species:S:1:pos:R:3:forces:R:3 energy=29.347251684028606 pbc="F F F"
Ag       0.00000000       0.00000000       0.00000000       0.00000000       0.00000000    -118.77963257
Ag       0.00000000       0.00000000       1.41454545       0.00000000       0.00000000     118.77963257
2
Properties=species:S:1:pos:R:3:forces:R:3 energy=22.914491783379013 pbc="F F F"
Ag       0.00000000       0.00000000       0.00000000       0.00000000       0.00000000     -98.74971008
Ag       0.00000000       0.00000000       1.47333333       0.00000000       0.00000000      98.74971008
2
Properties=species:S:1:pos:R:3:forces:R:3 energy=17.73145481634207 pbc="F F F"
Ag       0.00000000       0.00000000       0.00000000       0.00000000       0.00000000     -78.92314148
Ag       0.00000000       0.00000000       1.53212121       0.00000000       0.00000000      78.92314148
2
Properties=species:S:1:pos:R:3:forces:R:3 energy=13.595225847860966 pbc="F F F"
Ag       0.00000000       0.00000000       0.00000000       0.00000000       0.00000000     -62.32461166
Ag       0.00000000       0.00000000       1.59090909       0.00000000       0.00000000      62.32461166
2
Properties=species:S:1:pos:R:3:forces:R:3 energy=10.310174148489315 pbc="F F F"
Ag       0.00000000       0.00000000       0.00000000       0.00000000       0.00000000     -49.42600250
Ag       0.00000000       0.00000000       1.64969697       0.00000000       0.00000000      49.42600250
2
Properties=species:S:1:pos:R:3:forces:R:3 energy=7.735447593188329 pbc="F F F"
Ag       0.00000000       0.00000000       0.00000000       0.00000000       0.00000000     -38.48762894
Ag       0.00000000       0.00000000       1.70848485       0.00000000       0.00000000      38.48762894
2
Properties=species:S:1:pos:R:3:forces:R:3 energy=5.752882496428847 pbc="F F F"
Ag       0.00000000       0.00000000       0.00000000       0.00000000       0.00000000     -29.72868538
Ag       0.00000000       0.00000000       1.76727273       0.00000000       0.00000000      29.72868538
2
Properties=species:S:1:pos:R:3:forces:R:3 energy=4.159278443416126 pbc="F F F"
Ag       0.00000000       0.00000000       0.00000000       0.00000000       0.00000000     -24.72443962
Ag       0.00000000       0.00000000       1.82606061       0.00000000       0.00000000      24.72443962
2
Properties=species:S:1:pos:R:3:forces:R:3 energy=2.8315556557224126 pbc="F F F"
Ag       0.00000000       0.00000000       0.00000000       0.00000000       0.00000000     -20.66893959
Ag       0.00000000       0.00000000       1.88484848       0.00000000       0.00000000      20.66893959
2
Properties=species:S:1:pos:R:3:forces:R:3 energy=1.7214124349065296 pbc="F F F"
Ag       0.00000000       0.00000000       0.00000000       0.00000000       0.00000000     -17.03863144
Ag       0.00000000       0.00000000       1.94363636       0.00000000       0.00000000      17.03863144
2
Properties=species:S:1:pos:R:3:forces:R:3 energy=0.8198676116185047 pbc="F F F"
Ag       0.00000000       0.00000000       0.00000000       0.00000000       0.00000000     -13.79024410
Ag       0.00000000       0.00000000       2.00242424       0.00000000       0.00000000      13.79024410
2
Properties=species:S:1:pos:R:3:forces:R:3 energy=0.0860000268048028 pbc="F F F"
Ag       0.00000000       0.00000000       0.00000000       0.00000000       0.00000000     -11.23824215
Ag       0.00000000       0.00000000       2.06121212       0.00000000       0.00000000      11.23824215
2
Properties=species:S:1:pos:R:3:forces:R:3 energy=-0.503964175960548 pbc="F F F"
Ag       0.00000000       0.00000000       0.00000000       0.00000000       0.00000000      -8.83940792
Ag       0.00000000       0.00000000       2.12000000       0.00000000       0.00000000       8.83940792
2
Properties=species:S:1:pos:R:3:forces:R:3 energy=-0.9595755539439232 pbc="F F F"
Ag       0.00000000       0.00000000       0.00000000       0.00000000       0.00000000      -6.75979280
Ag       0.00000000       0.00000000       2.17878788       0.00000000       0.00000000       6.75979280
2
Properties=species:S:1:pos:R:3:forces:R:3 energy=-1.3072904481867142 pbc="F F F"
Ag       0.00000000       0.00000000       0.00000000       0.00000000       0.00000000      -5.10748005
Ag       0.00000000       0.00000000       2.23757576       0.00000000       0.00000000       5.10748005
2
Properties=species:S:1:pos:R:3:forces:R:3 energy=-1.565196529373889 pbc="F F F"
Ag       0.00000000       0.00000000       0.00000000       0.00000000       0.00000000      -3.71578312
Ag       0.00000000       0.00000000       2.29636364       0.00000000       0.00000000       3.71578312
2
Properties=species:S:1:pos:R:3:forces:R:3 energy=-1.7492202084426685 pbc="F F F"
Ag       0.00000000       0.00000000       0.00000000       0.00000000       0.00000000      -2.58483267
Ag       0.00000000       0.00000000       2.35515152       0.00000000       0.00000000       2.58483267
2
Properties=species:S:1:pos:R:3:forces:R:3 energy=-1.874313604646535 pbc="F F F"
Ag       0.00000000       0.00000000       0.00000000       0.00000000       0.00000000      -1.71491122
Ag       0.00000000       0.00000000       2.41393939       0.00000000       0.00000000       1.71491122
2
Properties=species:S:1:pos:R:3:forces:R:3 energy=-1.955427386728796 pbc="F F F"
Ag       0.00000000       0.00000000       0.00000000       0.00000000       0.00000000      -1.07998204
Ag       0.00000000       0.00000000       2.47272727       0.00000000       0.00000000       1.07998204
2
Properties=species:S:1:pos:R:3:forces:R:3 energy=-2.004718956221733 pbc="F F F"
Ag       0.00000000       0.00000000       0.00000000       0.00000000       0.00000000      -0.61766988
Ag       0.00000000       0.00000000       2.53151515       0.00000000       0.00000000       0.61766988
2
Properties=species:S:1:pos:R:3:forces:R:3 energy=-2.0298995489707075 pbc="F F F"
Ag       0.00000000       0.00000000       0.00000000       0.00000000       0.00000000      -0.25301015
Ag       0.00000000       0.00000000       2.59030303       0.00000000       0.00000000       0.25301015
2
Properties=species:S:1:pos:R:3:forces:R:3 energy=-2.0360876721781485 pbc="F F F"
Ag       0.00000000       0.00000000       0.00000000       0.00000000       0.00000000       0.02936641
Ag       0.00000000       0.00000000       2.64909091       0.00000000       0.00000000      -0.02936641
2
Properties=species:S:1:pos:R:3:forces:R:3 energy=-2.027801416286459 pbc="F F F"
Ag       0.00000000       0.00000000       0.00000000       0.00000000       0.00000000       0.24288590
Ag       0.00000000       0.00000000       2.70787879       0.00000000       0.00000000      -0.24288590
2
Properties=species:S:1:pos:R:3:forces:R:3 energy=-2.0085166437537407 pbc="F F F"
Ag       0.00000000       0.00000000       0.00000000       0.00000000       0.00000000       0.40534011
Ag       0.00000000       0.00000000       2.76666667       0.00000000       0.00000000      -0.40534011
2
Properties=species:S:1:pos:R:3:forces:R:3 energy=-1.981083775034976 pbc="F F F"
Ag       0.00000000       0.00000000       0.00000000       0.00000000       0.00000000       0.51978862
Ag       0.00000000       0.00000000       2.82545455       0.00000000       0.00000000      -0.51978862
2
Properties=species:S:1:pos:R:3:forces:R:3 energy=-1.9483381149652907 pbc="F F F"
Ag       0.00000000       0.00000000       0.00000000       0.00000000       0.00000000       0.58676577
Ag       0.00000000       0.00000000       2.88424242       0.00000000       0.00000000      -0.58676577
2
Properties=species:S:1:pos:R:3:forces:R:3 energy=-1.912872926462052 pbc="F F F"
Ag       0.00000000       0.00000000       0.00000000       0.00000000       0.00000000       0.61420876
Ag       0.00000000       0.00000000       2.94303030       0.00000000       0.00000000      -0.61420876
2
Properties=species:S:1:pos:R:3:forces:R:3 energy=-1.8766146059447333 pbc="F F F"
Ag       0.00000000       0.00000000       0.00000000       0.00000000       0.00000000       0.61659676
Ag       0.00000000       0.00000000       3.00181818       0.00000000       0.00000000      -0.61659676
2
Properties=species:S:1:pos:R:3:forces:R:3 energy=-1.8405303610988644 pbc="F F F"
Ag       0.00000000       0.00000000       0.00000000       0.00000000       0.00000000       0.61091828
Ag       0.00000000       0.00000000       3.06060606       0.00000000       0.00000000      -0.61091828
2
Properties=species:S:1:pos:R:3:forces:R:3 energy=-1.8047209188200943 pbc="F F F"
Ag       0.00000000       0.00000000       0.00000000       0.00000000       0.00000000       0.60819370
Ag       0.00000000       0.00000000       3.11939394       0.00000000       0.00000000      -0.60819370
2
Properties=species:S:1:pos:R:3:forces:R:3 energy=-1.768939307896251 pbc="F F F"
Ag       0.00000000       0.00000000       0.00000000       0.00000000       0.00000000       0.60947114
Ag       0.00000000       0.00000000       3.17818182       0.00000000       0.00000000      -0.60947114
2
Properties=species:S:1:pos:R:3:forces:R:3 energy=-1.7330632796776184 pbc="F F F"
Ag       0.00000000       0.00000000       0.00000000       0.00000000       0.00000000       0.61064684
Ag       0.00000000       0.00000000       3.23696970       0.00000000       0.00000000      -0.61064684
2
Properties=species:S:1:pos:R:3:forces:R:3 energy=-1.6972376579875799 pbc="F F F"
Ag       0.00000000       0.00000000       0.00000000       0.00000000       0.00000000       0.60703886
Ag       0.00000000       0.00000000       3.29575758       0.00000000       0.00000000      -0.60703886
2
Properties=species:S:1:pos:R:3:forces:R:3 energy=-1.6618486418812555 pbc="F F F"
Ag       0.00000000       0.00000000       0.00000000       0.00000000       0.00000000       0.59545535
Ag       0.00000000       0.00000000       3.35454545       0.00000000       0.00000000      -0.59545535
2
Properties=species:S:1:pos:R:3:forces:R:3 energy=-1.6273951192682308 pbc="F F F"
Ag       0.00000000       0.00000000       0.00000000       0.00000000       0.00000000       0.57535118
Ag       0.00000000       0.00000000       3.41333333       0.00000000       0.00000000      -0.57535118
2
Properties=species:S:1:pos:R:3:forces:R:3 energy=-1.5943292034675718 pbc="F F F"
Ag       0.00000000       0.00000000       0.00000000       0.00000000       0.00000000       0.54877228
Ag       0.00000000       0.00000000       3.47212121       0.00000000       0.00000000      -0.54877228
2
Properties=species:S:1:pos:R:3:forces:R:3 energy=-1.5629355374431069 pbc="F F F"
Ag       0.00000000       0.00000000       0.00000000       0.00000000       0.00000000       0.51897573
Ag       0.00000000       0.00000000       3.53090909       0.00000000       0.00000000      -0.51897573
2
Properties=species:S:1:pos:R:3:forces:R:3 energy=-1.5333182717546558 pbc="F F F"
Ag       0.00000000       0.00000000       0.00000000       0.00000000       0.00000000       0.48867887
Ag       0.00000000       0.00000000       3.58969697       0.00000000       0.00000000      -0.48867887
2
Properties=species:S:1:pos:R:3:forces:R:3 energy=-1.5054604803831004 pbc="F F F"
Ag       0.00000000       0.00000000       0.00000000       0.00000000       0.00000000       0.45929492
Ag       0.00000000       0.00000000       3.64848485       0.00000000       0.00000000      -0.45929492
2
Properties=species:S:1:pos:R:3:forces:R:3 energy=-1.479289303240493 pbc="F F F"
Ag       0.00000000       0.00000000       0.00000000       0.00000000       0.00000000       0.43128788
Ag       0.00000000       0.00000000       3.70727273       0.00000000       0.00000000      -0.43128788
2
Properties=species:S:1:pos:R:3:forces:R:3 energy=-1.4547223499585464 pbc="F F F"
Ag       0.00000000       0.00000000       0.00000000       0.00000000       0.00000000       0.40475652
Ag       0.00000000       0.00000000       3.76606061       0.00000000       0.00000000      -0.40475652
2
Properties=species:S:1:pos:R:3:forces:R:3 energy=-1.4316711212964055 pbc="F F F"
Ag       0.00000000       0.00000000       0.00000000       0.00000000       0.00000000       0.37966463
Ag       0.00000000       0.00000000       3.82484848       0.00000000       0.00000000      -0.37966463
2
Properties=species:S:1:pos:R:3:forces:R:3 energy=-1.410058192461588 pbc="F F F"
Ag       0.00000000       0.00000000       0.00000000       0.00000000       0.00000000       0.35578749
Ag       0.00000000       0.00000000       3.88363636       0.00000000       0.00000000      -0.35578749
2
Properties=species:S:1:pos:R:3:forces:R:3 energy=-1.3898246364362274 pbc="F F F"
Ag       0.00000000       0.00000000       0.00000000       0.00000000       0.00000000       0.33268544
Ag       0.00000000       0.00000000       3.94242424       0.00000000       0.00000000      -0.33268544
2
Properties=species:S:1:pos:R:3:forces:R:3 energy=-1.3709386782419928 pbc="F F F"
Ag       0.00000000       0.00000000       0.00000000       0.00000000       0.00000000       0.30984473
Ag       0.00000000       0.00000000       4.00121212       0.00000000       0.00000000      -0.30984473
2
Properties=species:S:1:pos:R:3:forces:R:3 energy=-1.3533964600490638 pbc="F F F"
Ag       0.00000000       0.00000000       0.00000000       0.00000000       0.00000000       0.28692782
Ag       0.00000000       0.00000000       4.06000000       0.00000000       0.00000000      -0.28692782
2
Properties=species:S:1:pos:R:3:forces:R:3 energy=-1.3372036607707836 pbc="F F F"
Ag       0.00000000       0.00000000       0.00000000       0.00000000       0.00000000       0.26395512
Ag       0.00000000       0.00000000       4.11878788       0.00000000       0.00000000      -0.26395512
2
Properties=species:S:1:pos:R:3:forces:R:3 energy=-1.322355916397856 pbc="F F F"
Ag       0.00000000       0.00000000       0.00000000       0.00000000       0.00000000       0.24129447
Ag       0.00000000       0.00000000       4.17757576       0.00000000       0.00000000      -0.24129447
2
Properties=species:S:1:pos:R:3:forces:R:3 energy=-1.3088167175944942 pbc="F F F"
Ag       0.00000000       0.00000000       0.00000000       0.00000000       0.00000000       0.21950740
Ag       0.00000000       0.00000000       4.23636364       0.00000000       0.00000000      -0.21950740
2
Properties=species:S:1:pos:R:3:forces:R:3 energy=-1.2965175594179794 pbc="F F F"
Ag       0.00000000       0.00000000       0.00000000       0.00000000       0.00000000       0.19916044
Ag       0.00000000       0.00000000       4.29515152       0.00000000       0.00000000      -0.19916044
2
Properties=species:S:1:pos:R:3:forces:R:3 energy=-1.285362544131573 pbc="F F F"
Ag       0.00000000       0.00000000       0.00000000       0.00000000       0.00000000       0.18069117
Ag       0.00000000       0.00000000       4.35393939       0.00000000       0.00000000      -0.18069117
2
Properties=species:S:1:pos:R:3:forces:R:3 energy=-1.2752316723792105 pbc="F F F"
Ag       0.00000000       0.00000000       0.00000000       0.00000000       0.00000000       0.16433366
Ag       0.00000000       0.00000000       4.41272727       0.00000000       0.00000000      -0.16433366
2
Properties=species:S:1:pos:R:3:forces:R:3 energy=-1.2659997004280052 pbc="F F F"
Ag       0.00000000       0.00000000       0.00000000       0.00000000       0.00000000       0.15010059
Ag       0.00000000       0.00000000       4.47151515       0.00000000       0.00000000      -0.15010059
2
Properties=species:S:1:pos:R:3:forces:R:3 energy=-1.25754572209284 pbc="F F F"
Ag       0.00000000       0.00000000       0.00000000       0.00000000       0.00000000       0.13780014
Ag       0.00000000       0.00000000       4.53030303       0.00000000       0.00000000      -0.13780014
2
Properties=species:S:1:pos:R:3:forces:R:3 energy=-1.2497655760059478 pbc="F F F"
Ag       0.00000000       0.00000000       0.00000000       0.00000000       0.00000000       0.12709463
Ag       0.00000000       0.00000000       4.58909091       0.00000000       0.00000000      -0.12709463
2
Properties=species:S:1:pos:R:3:forces:R:3 energy=-1.2425795455354476 pbc="F F F"
Ag       0.00000000       0.00000000       0.00000000       0.00000000       0.00000000       0.11759340
Ag       0.00000000       0.00000000       4.64787879       0.00000000       0.00000000      -0.11759340
2
Properties=species:S:1:pos:R:3:forces:R:3 energy=-1.235923317886271 pbc="F F F"
Ag       0.00000000       0.00000000       0.00000000       0.00000000       0.00000000       0.10895067
Ag       0.00000000       0.00000000       4.70666667       0.00000000       0.00000000      -0.10895067
2
Properties=species:S:1:pos:R:3:forces:R:3 energy=-1.229756503812568 pbc="F F F"
Ag       0.00000000       0.00000000       0.00000000       0.00000000       0.00000000       0.10094872
Ag       0.00000000       0.00000000       4.76545455       0.00000000       0.00000000      -0.10094872
2
Properties=species:S:1:pos:R:3:forces:R:3 energy=-1.2240423878775937 pbc="F F F"
Ag       0.00000000       0.00000000       0.00000000       0.00000000       0.00000000       0.09353019
Ag       0.00000000       0.00000000       4.82424242       0.00000000       0.00000000      -0.09353019
2
Properties=species:S:1:pos:R:3:forces:R:3 energy=-1.218746497942233 pbc="F F F"
Ag       0.00000000       0.00000000       0.00000000       0.00000000       0.00000000       0.08677289
Ag       0.00000000       0.00000000       4.88303030       0.00000000       0.00000000      -0.08677289
2
Properties=species:S:1:pos:R:3:forces:R:3 energy=-1.2138246509739146 pbc="F F F"
Ag       0.00000000       0.00000000       0.00000000       0.00000000       0.00000000       0.08081758
Ag       0.00000000       0.00000000       4.94181818       0.00000000       0.00000000      -0.08081758
2
Properties=species:S:1:pos:R:3:forces:R:3 energy=-1.2092263764379139 pbc="F F F"
Ag       0.00000000       0.00000000       0.00000000       0.00000000       0.00000000       0.07577361
Ag       0.00000000       0.00000000       5.00060606       0.00000000       0.00000000      -0.07577361
2
Properties=species:S:1:pos:R:3:forces:R:3 energy=-1.2048973606717672 pbc="F F F"
Ag       0.00000000       0.00000000       0.00000000       0.00000000       0.00000000       0.07163446
Ag       0.00000000       0.00000000       5.05939394       0.00000000       0.00000000      -0.07163446
2
Properties=species:S:1:pos:R:3:forces:R:3 energy=-1.2007892109596363 pbc="F F F"
Ag       0.00000000       0.00000000       0.00000000       0.00000000       0.00000000       0.06823464
Ag       0.00000000       0.00000000       5.11818182       0.00000000       0.00000000      -0.06823464
2
Properties=species:S:1:pos:R:3:forces:R:3 energy=-1.1968662088641662 pbc="F F F"
Ag       0.00000000       0.00000000       0.00000000       0.00000000       0.00000000       0.06525625
Ag       0.00000000       0.00000000       5.17696970       0.00000000       0.00000000      -0.06525625
2
Properties=species:S:1:pos:R:3:forces:R:3 energy=-1.193117084603703 pbc="F F F"
Ag       0.00000000       0.00000000       0.00000000       0.00000000       0.00000000       0.06229045
Ag       0.00000000       0.00000000       5.23575758       0.00000000       0.00000000      -0.06229045
2
Properties=species:S:1:pos:R:3:forces:R:3 energy=-1.1895511833480954 pbc="F F F"
Ag       0.00000000       0.00000000       0.00000000       0.00000000       0.00000000       0.05892237
Ag       0.00000000       0.00000000       5.29454545       0.00000000       0.00000000      -0.05892237
2
Properties=species:S:1:pos:R:3:forces:R:3 energy=-1.1862033587192526 pbc="F F F"
Ag       0.00000000       0.00000000       0.00000000       0.00000000       0.00000000       0.05482802
Ag       0.00000000       0.00000000       5.35333333       0.00000000       0.00000000      -0.05482802
2
Properties=species:S:1:pos:R:3:forces:R:3 energy=-1.183122307703789 pbc="F F F"
Ag       0.00000000       0.00000000       0.00000000       0.00000000       0.00000000       0.04984935
Ag       0.00000000       0.00000000       5.41212121       0.00000000       0.00000000      -0.04984935
2
Properties=species:S:1:pos:R:3:forces:R:3 energy=-1.1803579471396202 pbc="F F F"
Ag       0.00000000       0.00000000       0.00000000       0.00000000       0.00000000       0.04402938
Ag       0.00000000       0.00000000       5.47090909       0.00000000       0.00000000      -0.04402938
2
Properties=species:S:1:pos:R:3:forces:R:3 energy=-1.1779565114639343 pbc="F F F"
Ag       0.00000000       0.00000000       0.00000000       0.00000000       0.00000000       0.03760932
Ag       0.00000000       0.00000000       5.52969697       0.00000000       0.00000000      -0.03760932
2
Properties=species:S:1:pos:R:3:forces:R:3 energy=-1.1759410000138373 pbc="F F F"
Ag       0.00000000       0.00000000       0.00000000       0.00000000       0.00000000       0.03097756
Ag       0.00000000       0.00000000       5.58848485       0.00000000       0.00000000      -0.03097756
2
Properties=species:S:1:pos:R:3:forces:R:3 energy=-1.1743095461101662 pbc="F F F"
Ag       0.00000000       0.00000000       0.00000000       0.00000000       0.00000000       0.02460391
Ag       0.00000000       0.00000000       5.64727273       0.00000000       0.00000000      -0.02460391
2
Properties=species:S:1:pos:R:3:forces:R:3 energy=-1.1730347231845504 pbc="F F F"
Ag       0.00000000       0.00000000       0.00000000       0.00000000       0.00000000       0.01893644
Ag       0.00000000       0.00000000       5.70606061       0.00000000       0.00000000      -0.01893644
2
Properties=species:S:1:pos:R:3:forces:R:3 energy=-1.1720616881159343 pbc="F F F"
Ag       0.00000000       0.00000000       0.00000000       0.00000000       0.00000000       0.01432848
Ag       0.00000000       0.00000000       5.76484848       0.00000000       0.00000000      -0.01432848
2
Properties=species:S:1:pos:R:3:forces:R:3 energy=-1.1713243897341774 pbc="F F F"
Ag       0.00000000       0.00000000       0.00000000       0.00000000       0.00000000       0.01097348
Ag       0.00000000       0.00000000       5.82363636       0.00000000       0.00000000      -0.01097348
2
Properties=species:S:1:pos:R:3:forces:R:3 energy=-1.1707472456696641 pbc="F F F"
Ag       0.00000000       0.00000000       0.00000000       0.00000000       0.00000000       0.00885015
Ag       0.00000000       0.00000000       5.88242424       0.00000000       0.00000000      -0.00885015
2
Properties=species:S:1:pos:R:3:forces:R:3 energy=-1.170264975444879 pbc="F F F"
Ag       0.00000000       0.00000000       0.00000000       0.00000000       0.00000000       0.00772183
Ag       0.00000000       0.00000000       5.94121212       0.00000000       0.00000000      -0.00772183
2
Properties=species:S:1:pos:R:3:forces:R:3 energy=-1.1698283027214171 pbc="F F F"
Ag       0.00000000       0.00000000       0.00000000       0.00000000       0.00000000       0.00717060
Ag       0.00000000       0.00000000       6.00000000       0.00000000       0.00000000      -0.00717060
