2
Properties=species:S:1:pos:R:3:forces:R:3 energy=107300.3828769299 pbc="F F F"
Ag       0.00000000       0.00000000       0.00000000       0.00000000       0.00000000 -613790.68750000
Ag       0.00000000       0.00000000       0.10000000       0.00000000       0.00000000  613790.68750000
2
Properties=species:S:1:pos:R:3:forces:R:3 energy=68270.8281894299 pbc="F F F"
Ag       0.00000000       0.00000000       0.00000000       0.00000000       0.00000000 -654549.50000000
Ag       0.00000000       0.00000000       0.15959596       0.00000000       0.00000000  654549.50000000
2
Properties=species:S:1:pos:R:3:forces:R:3 energy=33591.7110019299 pbc="F F F"
Ag       0.00000000       0.00000000       0.00000000       0.00000000       0.00000000 -487978.00000000
Ag       0.00000000       0.00000000       0.21919192       0.00000000       0.00000000  487978.00000000
2
Properties=species:S:1:pos:R:3:forces:R:3 energy=11614.624087867398 pbc="F F F"
Ag       0.00000000       0.00000000       0.00000000       0.00000000       0.00000000 -223507.92187500
Ag       0.00000000       0.00000000       0.27878788       0.00000000       0.00000000  223507.92187500
2
Properties=species:S:1:pos:R:3:forces:R:3 energy=3714.317447242397 pbc="F F F"
Ag       0.00000000       0.00000000       0.00000000       0.00000000       0.00000000  -73089.85937500
Ag       0.00000000       0.00000000       0.33838384       0.00000000       0.00000000   73089.85937500
2
Properties=species:S:1:pos:R:3:forces:R:3 energy=1068.6402011549826 pbc="F F F"
Ag       0.00000000       0.00000000       0.00000000       0.00000000       0.00000000  -16024.60253906
Ag       0.00000000       0.00000000       0.39797980       0.00000000       0.00000000   16024.60253906
2
Properties=species:S:1:pos:R:3:forces:R:3 energy=456.76437719304465 pbc="F F F"
Ag       0.00000000       0.00000000       0.00000000       0.00000000       0.00000000   -6256.40429688
Ag       0.00000000       0.00000000       0.45757576       0.00000000       0.00000000    6256.40429688
2
Properties=species:S:1:pos:R:3:forces:R:3 energy=209.35870705237159 pbc="F F F"
Ag       0.00000000       0.00000000       0.00000000       0.00000000       0.00000000   -2589.94799805
Ag       0.00000000       0.00000000       0.51717172       0.00000000       0.00000000    2589.94799805
2
Properties=species:S:1:pos:R:3:forces:R:3 energy=103.26936688676015 pbc="F F F"
Ag       0.00000000       0.00000000       0.00000000       0.00000000       0.00000000   -1147.10290527
Ag       0.00000000       0.00000000       0.57676768       0.00000000       0.00000000    1147.10290527
2
Properties=species:S:1:pos:R:3:forces:R:3 energy=55.602996564606535 pbc="F F F"
Ag       0.00000000       0.00000000       0.00000000       0.00000000       0.00000000    -497.15988159
Ag       0.00000000       0.00000000       0.63636364       0.00000000       0.00000000     497.15988159
2
Properties=species:S:1:pos:R:3:forces:R:3 energy=37.15664277263026 pbc="F F F"
Ag       0.00000000       0.00000000       0.00000000       0.00000000       0.00000000    -167.69682312
Ag       0.00000000       0.00000000       0.69595960       0.00000000       0.00000000     167.69682312
2
Properties=species:S:1:pos:R:3:forces:R:3 energy=33.394542733469564 pbc="F F F"
Ag       0.00000000       0.00000000       0.00000000       0.00000000       0.00000000      15.93141460
Ag       0.00000000       0.00000000       0.75555556       0.00000000       0.00000000     -15.93141460
2
Properties=species:S:1:pos:R:3:forces:R:3 energy=37.57120926250007 pbc="F F F"
Ag       0.00000000       0.00000000       0.00000000       0.00000000       0.00000000     251.98558044
Ag       0.00000000       0.00000000       0.81515152       0.00000000       0.00000000    -251.98558044
2
Properties=species:S:1:pos:R:3:forces:R:3 energy=64.0855452844664 pbc="F F F"
Ag       0.00000000       0.00000000       0.00000000       0.00000000       0.00000000     284.56140137
Ag       0.00000000       0.00000000       0.87474747       0.00000000       0.00000000    -284.56140137
2
Properties=species:S:1:pos:R:3:forces:R:3 energy=73.1639912734056 pbc="F F F"
Ag       0.00000000       0.00000000       0.00000000       0.00000000       0.00000000      43.12328339
Ag       0.00000000       0.00000000       0.93434343       0.00000000       0.00000000     -43.12328339
2
Properties=species:S:1:pos:R:3:forces:R:3 energy=72.10622226146012 pbc="F F F"
Ag       0.00000000       0.00000000       0.00000000       0.00000000       0.00000000     -63.19496155
Ag       0.00000000       0.00000000       0.99393939       0.00000000       0.00000000      63.19496155
2
Properties=species:S:1:pos:R:3:forces:R:3 energy=68.56639786422048 pbc="F F F"
Ag       0.00000000       0.00000000       0.00000000       0.00000000       0.00000000     -46.33597946
Ag       0.00000000       0.00000000       1.05353535       0.00000000       0.00000000      46.33597946
2
Properties=species:S:1:pos:R:3:forces:R:3 energy=65.1434561364922 pbc="F F F"
Ag       0.00000000       0.00000000       0.00000000       0.00000000       0.00000000     -76.37180328
Ag       0.00000000       0.00000000       1.11313131       0.00000000       0.00000000      76.37180328
2
Properties=species:S:1:pos:R:3:forces:R:3 energy=59.49484117355409 pbc="F F F"
Ag       0.00000000       0.00000000       0.00000000       0.00000000       0.00000000    -111.38004303
Ag       0.00000000       0.00000000       1.17272727       0.00000000       0.00000000     111.38004303
2
Properties=species:S:1:pos:R:3:forces:R:3 energy=52.76319605796563 pbc="F F F"
Ag       0.00000000       0.00000000       0.00000000       0.00000000       0.00000000    -122.87897491
Ag       0.00000000       0.00000000       1.23232323       0.00000000       0.00000000     122.87897491
2
Properties=species:S:1:pos:R:3:forces:R:3 energy=45.0639002531036 pbc="F F F"
Ag       0.00000000       0.00000000       0.00000000       0.00000000       0.00000000    -134.42979431
Ag       0.00000000       0.00000000       1.29191919       0.00000000       0.00000000     134.42979431
2
Properties=species:S:1:pos:R:3:forces:R:3 energy=37.216160139312976 pbc="F F F"
Ag       0.00000000       0.00000000       0.00000000       0.00000000       0.00000000    -127.78388977
Ag       0.00000000       0.00000000       1.35151515       0.00000000       0.00000000     127.78388977
2
Properties=species:S:1:pos:R:3:forces:R:3 energy=29.75680489507842 pbc="F F F"
Ag       0.00000000       0.00000000       0.00000000       0.00000000       0.00000000    -119.71562958
Ag       0.00000000       0.00000000       1.41111111       0.00000000       0.00000000     119.71562958
2
Properties=species:S:1:pos:R:3:forces:R:3 energy=23.17522031849548 pbc="F F F"
Ag       0.00000000       0.00000000       0.00000000       0.00000000       0.00000000     -99.79536438
Ag       0.00000000       0.00000000       1.47070707       0.00000000       0.00000000      99.79536438
2
Properties=species:S:1:pos:R:3:forces:R:3 energy=17.875423145069615 pbc="F F F"
Ag       0.00000000       0.00000000       0.00000000       0.00000000       0.00000000     -79.44842529
Ag       0.00000000       0.00000000       1.53030303       0.00000000       0.00000000      79.44842529
2
Properties=species:S:1:pos:R:3:forces:R:3 energy=13.658305510782945 pbc="F F F"
Ag       0.00000000       0.00000000       0.00000000       0.00000000       0.00000000     -62.56094742
Ag       0.00000000       0.00000000       1.58989899       0.00000000       0.00000000      62.56094742
2
Properties=species:S:1:pos:R:3:forces:R:3 energy=10.320160984749032 pbc="F F F"
Ag       0.00000000       0.00000000       0.00000000       0.00000000       0.00000000     -49.46900940
Ag       0.00000000       0.00000000       1.64949495       0.00000000       0.00000000      49.46900940
2
Properties=species:S:1:pos:R:3:forces:R:3 energy=7.712153290055609 pbc="F F F"
Ag       0.00000000       0.00000000       0.00000000       0.00000000       0.00000000     -38.37977600
Ag       0.00000000       0.00000000       1.70909091       0.00000000       0.00000000      38.37977600
2
Properties=species:S:1:pos:R:3:forces:R:3 energy=5.710947947540355 pbc="F F F"
Ag       0.00000000       0.00000000       0.00000000       0.00000000       0.00000000     -29.58036232
Ag       0.00000000       0.00000000       1.76868687       0.00000000       0.00000000      29.58036232
2
Properties=species:S:1:pos:R:3:forces:R:3 energy=4.104530700215412 pbc="F F F"
Ag       0.00000000       0.00000000       0.00000000       0.00000000       0.00000000     -24.54997826
Ag       0.00000000       0.00000000       1.82828283       0.00000000       0.00000000      24.54997826
2
Properties=species:S:1:pos:R:3:forces:R:3 energy=2.7691928182735377 pbc="F F F"
Ag       0.00000000       0.00000000       0.00000000       0.00000000       0.00000000     -20.49045753
Ag       0.00000000       0.00000000       1.88787879       0.00000000       0.00000000      20.49045753
2
Properties=species:S:1:pos:R:3:forces:R:3 energy=1.6564738703528463 pbc="F F F"
Ag       0.00000000       0.00000000       0.00000000       0.00000000       0.00000000     -16.79903603
Ag       0.00000000       0.00000000       1.94747475       0.00000000       0.00000000      16.79903603
2
Properties=species:S:1:pos:R:3:forces:R:3 energy=0.7562993153387176 pbc="F F F"
Ag       0.00000000       0.00000000       0.00000000       0.00000000       0.00000000     -13.57164383
Ag       0.00000000       0.00000000       2.00707071       0.00000000       0.00000000      13.57164383
2
Properties=species:S:1:pos:R:3:forces:R:3 energy=0.02531136263484314 pbc="F F F"
Ag       0.00000000       0.00000000       0.00000000       0.00000000       0.00000000     -11.01452160
Ag       0.00000000       0.00000000       2.06666667       0.00000000       0.00000000      11.01452160
2
Properties=species:S:1:pos:R:3:forces:R:3 energy=-0.5585450434663181 pbc="F F F"
Ag       0.00000000       0.00000000       0.00000000       0.00000000       0.00000000      -8.59150696
Ag       0.00000000       0.00000000       2.12626263       0.00000000       0.00000000       8.59150696
2
Properties=species:S:1:pos:R:3:forces:R:3 energy=-1.006616518072668 pbc="F F F"
Ag       0.00000000       0.00000000       0.00000000       0.00000000       0.00000000      -6.54759264
Ag       0.00000000       0.00000000       2.18585859       0.00000000       0.00000000       6.54759264
2
Properties=species:S:1:pos:R:3:forces:R:3 energy=-1.3467251755523852 pbc="F F F"
Ag       0.00000000       0.00000000       0.00000000       0.00000000       0.00000000      -4.90372133
Ag       0.00000000       0.00000000       2.24545455       0.00000000       0.00000000       4.90372133
2
Properties=species:S:1:pos:R:3:forces:R:3 energy=-1.5966813415945813 pbc="F F F"
Ag       0.00000000       0.00000000       0.00000000       0.00000000       0.00000000      -3.53372860
Ag       0.00000000       0.00000000       2.30505051       0.00000000       0.00000000       3.53372860
2
Properties=species:S:1:pos:R:3:forces:R:3 energy=-1.7730027622334477 pbc="F F F"
Ag       0.00000000       0.00000000       0.00000000       0.00000000       0.00000000      -2.42600775
Ag       0.00000000       0.00000000       2.36464646       0.00000000       0.00000000       2.42600775
2
Properties=species:S:1:pos:R:3:forces:R:3 energy=-1.8913223843177986 pbc="F F F"
Ag       0.00000000       0.00000000       0.00000000       0.00000000       0.00000000      -1.58802676
Ag       0.00000000       0.00000000       2.42424242       0.00000000       0.00000000       1.58802676
2
Properties=species:S:1:pos:R:3:forces:R:3 energy=-1.9668794129248903 pbc="F F F"
Ag       0.00000000       0.00000000       0.00000000       0.00000000       0.00000000      -0.98226929
Ag       0.00000000       0.00000000       2.48383838       0.00000000       0.00000000       0.98226929
2
Properties=species:S:1:pos:R:3:forces:R:3 energy=-2.0115960166526974 pbc="F F F"
Ag       0.00000000       0.00000000       0.00000000       0.00000000       0.00000000      -0.53691763
Ag       0.00000000       0.00000000       2.54343434       0.00000000       0.00000000       0.53691763
2
Properties=species:S:1:pos:R:3:forces:R:3 energy=-2.0326832408471476 pbc="F F F"
Ag       0.00000000       0.00000000       0.00000000       0.00000000       0.00000000      -0.18509406
Ag       0.00000000       0.00000000       2.60303030       0.00000000       0.00000000       0.18509406
2
Properties=species:S:1:pos:R:3:forces:R:3 energy=-2.035317395729229 pbc="F F F"
Ag       0.00000000       0.00000000       0.00000000       0.00000000       0.00000000       0.08383467
Ag       0.00000000       0.00000000       2.66262626       0.00000000       0.00000000      -0.08383467
2
Properties=species:S:1:pos:R:3:forces:R:3 energy=-2.0239983766063383 pbc="F F F"
Ag       0.00000000       0.00000000       0.00000000       0.00000000       0.00000000       0.28687561
Ag       0.00000000       0.00000000       2.72222222       0.00000000       0.00000000      -0.28687561
2
Properties=species:S:1:pos:R:3:forces:R:3 energy=-2.002112041660502 pbc="F F F"
Ag       0.00000000       0.00000000       0.00000000       0.00000000       0.00000000       0.43951067
Ag       0.00000000       0.00000000       2.78181818       0.00000000       0.00000000      -0.43951067
2
Properties=species:S:1:pos:R:3:forces:R:3 energy=-1.9726023864338997 pbc="F F F"
Ag       0.00000000       0.00000000       0.00000000       0.00000000       0.00000000       0.54247242
Ag       0.00000000       0.00000000       2.84141414       0.00000000       0.00000000      -0.54247242
2
Properties=species:S:1:pos:R:3:forces:R:3 energy=-1.9383997857738782 pbc="F F F"
Ag       0.00000000       0.00000000       0.00000000       0.00000000       0.00000000       0.59809577
Ag       0.00000000       0.00000000       2.90101010       0.00000000       0.00000000      -0.59809577
2
Properties=species:S:1:pos:R:3:forces:R:3 energy=-1.9020529196058047 pbc="F F F"
Ag       0.00000000       0.00000000       0.00000000       0.00000000       0.00000000       0.61676270
Ag       0.00000000       0.00000000       2.96060606       0.00000000       0.00000000      -0.61676270
2
Properties=species:S:1:pos:R:3:forces:R:3 energy=-1.865294275353761 pbc="F F F"
Ag       0.00000000       0.00000000       0.00000000       0.00000000       0.00000000       0.61496896
Ag       0.00000000       0.00000000       3.02020202       0.00000000       0.00000000      -0.61496896
2
Properties=species:S:1:pos:R:3:forces:R:3 energy=-1.8288200057969601 pbc="F F F"
Ag       0.00000000       0.00000000       0.00000000       0.00000000       0.00000000       0.60947442
Ag       0.00000000       0.00000000       3.07979798       0.00000000       0.00000000      -0.60947442
2
Properties=species:S:1:pos:R:3:forces:R:3 energy=-1.7925555840318035 pbc="F F F"
Ag       0.00000000       0.00000000       0.00000000       0.00000000       0.00000000       0.60833907
Ag       0.00000000       0.00000000       3.13939394       0.00000000       0.00000000      -0.60833907
2
Properties=species:S:1:pos:R:3:forces:R:3 energy=-1.7562507547187929 pbc="F F F"
Ag       0.00000000       0.00000000       0.00000000       0.00000000       0.00000000       0.61015373
Ag       0.00000000       0.00000000       3.19898990       0.00000000       0.00000000      -0.61015373
2
Properties=species:S:1:pos:R:3:forces:R:3 energy=-1.7198677765345725 pbc="F F F"
Ag       0.00000000       0.00000000       0.00000000       0.00000000       0.00000000       0.61009383
Ag       0.00000000       0.00000000       3.25858586       0.00000000       0.00000000      -0.61009383
2
Properties=species:S:1:pos:R:3:forces:R:3 energy=-1.6836603316019183 pbc="F F F"
Ag       0.00000000       0.00000000       0.00000000       0.00000000       0.00000000       0.60365516
Ag       0.00000000       0.00000000       3.31818182       0.00000000       0.00000000      -0.60365516
2
Properties=species:S:1:pos:R:3:forces:R:3 energy=-1.6480931826512448 pbc="F F F"
Ag       0.00000000       0.00000000       0.00000000       0.00000000       0.00000000       0.58846319
Ag       0.00000000       0.00000000       3.37777778       0.00000000       0.00000000      -0.58846319
2
Properties=species:S:1:pos:R:3:forces:R:3 energy=-1.6136851407887132 pbc="F F F"
Ag       0.00000000       0.00000000       0.00000000       0.00000000       0.00000000       0.56508625
Ag       0.00000000       0.00000000       3.43737374       0.00000000       0.00000000      -0.56508625
2
Properties=species:S:1:pos:R:3:forces:R:3 energy=-1.580845424721764 pbc="F F F"
Ag       0.00000000       0.00000000       0.00000000       0.00000000       0.00000000       0.53638572
Ag       0.00000000       0.00000000       3.49696970       0.00000000       0.00000000      -0.53638572
2
Properties=species:S:1:pos:R:3:forces:R:3 energy=-1.549790397256205 pbc="F F F"
Ag       0.00000000       0.00000000       0.00000000       0.00000000       0.00000000       0.50570166
Ag       0.00000000       0.00000000       3.55656566       0.00000000       0.00000000      -0.50570166
2
Properties=species:S:1:pos:R:3:forces:R:3 energy=-1.5205632517742047 pbc="F F F"
Ag       0.00000000       0.00000000       0.00000000       0.00000000       0.00000000       0.47529599
Ag       0.00000000       0.00000000       3.61616162       0.00000000       0.00000000      -0.47529599
2
Properties=species:S:1:pos:R:3:forces:R:3 energy=-1.4931147021576472 pbc="F F F"
Ag       0.00000000       0.00000000       0.00000000       0.00000000       0.00000000       0.44612083
Ag       0.00000000       0.00000000       3.67575758       0.00000000       0.00000000      -0.44612083
2
Properties=species:S:1:pos:R:3:forces:R:3 energy=-1.4673590980622249 pbc="F F F"
Ag       0.00000000       0.00000000       0.00000000       0.00000000       0.00000000       0.41842985
Ag       0.00000000       0.00000000       3.73535354       0.00000000       0.00000000      -0.41842985
2
Properties=species:S:1:pos:R:3:forces:R:3 energy=-1.4432105276857086 pbc="F F F"
Ag       0.00000000       0.00000000       0.00000000       0.00000000       0.00000000       0.39225483
Ag       0.00000000       0.00000000       3.79494949       0.00000000       0.00000000      -0.39225483
2
Properties=species:S:1:pos:R:3:forces:R:3 energy=-1.4205787770036933 pbc="F F F"
Ag       0.00000000       0.00000000       0.00000000       0.00000000       0.00000000       0.36747435
Ag       0.00000000       0.00000000       3.85454545       0.00000000       0.00000000      -0.36747435
2
Properties=species:S:1:pos:R:3:forces:R:3 energy=-1.3993892735750977 pbc="F F F"
Ag       0.00000000       0.00000000       0.00000000       0.00000000       0.00000000       0.34373674
Ag       0.00000000       0.00000000       3.91414141       0.00000000       0.00000000      -0.34373674
2
Properties=species:S:1:pos:R:3:forces:R:3 energy=-1.3795971214002603 pbc="F F F"
Ag       0.00000000       0.00000000       0.00000000       0.00000000       0.00000000       0.32051536
Ag       0.00000000       0.00000000       3.97373737       0.00000000       0.00000000      -0.32051536
2
Properties=species:S:1:pos:R:3:forces:R:3 energy=-1.3611862897986196 pbc="F F F"
Ag       0.00000000       0.00000000       0.00000000       0.00000000       0.00000000       0.29734048
Ag       0.00000000       0.00000000       4.03333333       0.00000000       0.00000000      -0.29734048
2
Properties=species:S:1:pos:R:3:forces:R:3 energy=-1.3441591316627823 pbc="F F F"
Ag       0.00000000       0.00000000       0.00000000       0.00000000       0.00000000       0.27404991
Ag       0.00000000       0.00000000       4.09292929       0.00000000       0.00000000      -0.27404991
2
Properties=species:S:1:pos:R:3:forces:R:3 energy=-1.3285193947188676 pbc="F F F"
Ag       0.00000000       0.00000000       0.00000000       0.00000000       0.00000000       0.25087821
Ag       0.00000000       0.00000000       4.15252525       0.00000000       0.00000000      -0.25087821
2
Properties=species:S:1:pos:R:3:forces:R:3 energy=-1.3142446513344488 pbc="F F F"
Ag       0.00000000       0.00000000       0.00000000       0.00000000       0.00000000       0.22834778
Ag       0.00000000       0.00000000       4.21212121       0.00000000       0.00000000      -0.22834778
2
Properties=species:S:1:pos:R:3:forces:R:3 energy=-1.3012772132699681 pbc="F F F"
Ag       0.00000000       0.00000000       0.00000000       0.00000000       0.00000000       0.20706686
Ag       0.00000000       0.00000000       4.27171717       0.00000000       0.00000000      -0.20706686
2
Properties=species:S:1:pos:R:3:forces:R:3 energy=-1.2895286552960978 pbc="F F F"
Ag       0.00000000       0.00000000       0.00000000       0.00000000       0.00000000       0.18755783
Ag       0.00000000       0.00000000       4.33131313       0.00000000       0.00000000      -0.18755783
2
Properties=species:S:1:pos:R:3:forces:R:3 energy=-1.2788796061174763 pbc="F F F"
Ag       0.00000000       0.00000000       0.00000000       0.00000000       0.00000000       0.17015256
Ag       0.00000000       0.00000000       4.39090909       0.00000000       0.00000000      -0.17015256
2
Properties=species:S:1:pos:R:3:forces:R:3 energy=-1.269203768460578 pbc="F F F"
Ag       0.00000000       0.00000000       0.00000000       0.00000000       0.00000000       0.15495141
Ag       0.00000000       0.00000000       4.45050505       0.00000000       0.00000000      -0.15495141
2
Properties=species:S:1:pos:R:3:forces:R:3 energy=-1.2603702082248385 pbc="F F F"
Ag       0.00000000       0.00000000       0.00000000       0.00000000       0.00000000       0.14182799
Ag       0.00000000       0.00000000       4.51010101       0.00000000       0.00000000      -0.14182799
2
Properties=species:S:1:pos:R:3:forces:R:3 energy=-1.252263677914597 pbc="F F F"
Ag       0.00000000       0.00000000       0.00000000       0.00000000       0.00000000       0.13047443
Ag       0.00000000       0.00000000       4.56969697       0.00000000       0.00000000      -0.13047443
2
Properties=species:S:1:pos:R:3:forces:R:3 energy=-1.2447906087817933 pbc="F F F"
Ag       0.00000000       0.00000000       0.00000000       0.00000000       0.00000000       0.12048969
Ag       0.00000000       0.00000000       4.62929293       0.00000000       0.00000000      -0.12048969
2
Properties=species:S:1:pos:R:3:forces:R:3 energy=-1.2378825461365695 pbc="F F F"
Ag       0.00000000       0.00000000       0.00000000       0.00000000       0.00000000       0.11148953
Ag       0.00000000       0.00000000       4.68888889       0.00000000       0.00000000      -0.11148953
2
Properties=species:S:1:pos:R:3:forces:R:3 energy=-1.2314878221200232 pbc="F F F"
Ag       0.00000000       0.00000000       0.00000000       0.00000000       0.00000000       0.10319914
Ag       0.00000000       0.00000000       4.74848485       0.00000000       0.00000000      -0.10319914
2
Properties=species:S:1:pos:R:3:forces:R:3 energy=-1.2255702337306045 pbc="F F F"
Ag       0.00000000       0.00000000       0.00000000       0.00000000       0.00000000       0.09550884
Ag       0.00000000       0.00000000       4.80808081       0.00000000       0.00000000      -0.09550884
2
Properties=species:S:1:pos:R:3:forces:R:3 energy=-1.2200915709116575 pbc="F F F"
Ag       0.00000000       0.00000000       0.00000000       0.00000000       0.00000000       0.08846619
Ag       0.00000000       0.00000000       4.86767677       0.00000000       0.00000000      -0.08846619
2
Properties=species:S:1:pos:R:3:forces:R:3 energy=-1.2150098256602146 pbc="F F F"
Ag       0.00000000       0.00000000       0.00000000       0.00000000       0.00000000       0.08220963
Ag       0.00000000       0.00000000       4.92727273       0.00000000       0.00000000      -0.08220963
2
Properties=species:S:1:pos:R:3:forces:R:3 energy=-1.2102744980992346 pbc="F F F"
Ag       0.00000000       0.00000000       0.00000000       0.00000000       0.00000000       0.07686918
Ag       0.00000000       0.00000000       4.98686869       0.00000000       0.00000000      -0.07686918
2
Properties=species:S:1:pos:R:3:forces:R:3 energy=-1.2058297814503292 pbc="F F F"
Ag       0.00000000       0.00000000       0.00000000       0.00000000       0.00000000       0.07247343
Ag       0.00000000       0.00000000       5.04646465       0.00000000       0.00000000      -0.07247343
2
Properties=species:S:1:pos:R:3:forces:R:3 energy=-1.2016202365623285 pbc="F F F"
Ag       0.00000000       0.00000000       0.00000000       0.00000000       0.00000000       0.06888876
Ag       0.00000000       0.00000000       5.10606061       0.00000000       0.00000000      -0.06888876
2
Properties=species:S:1:pos:R:3:forces:R:3 energy=-1.197607890692795 pbc="F F F"
Ag       0.00000000       0.00000000       0.00000000       0.00000000       0.00000000       0.06581493
Ag       0.00000000       0.00000000       5.16565657       0.00000000       0.00000000      -0.06581493
2
Properties=species:S:1:pos:R:3:forces:R:3 energy=-1.1937734042583399 pbc="F F F"
Ag       0.00000000       0.00000000       0.00000000       0.00000000       0.00000000       0.06283875
Ag       0.00000000       0.00000000       5.22525253       0.00000000       0.00000000      -0.06283875
2
Properties=species:S:1:pos:R:3:forces:R:3 energy=-1.19012473943467 pbc="F F F"
Ag       0.00000000       0.00000000       0.00000000       0.00000000       0.00000000       0.05952101
Ag       0.00000000       0.00000000       5.28484848       0.00000000       0.00000000      -0.05952101
2
Properties=species:S:1:pos:R:3:forces:R:3 energy=-1.1866934103996754 pbc="F F F"
Ag       0.00000000       0.00000000       0.00000000       0.00000000       0.00000000       0.05550245
Ag       0.00000000       0.00000000       5.34444444       0.00000000       0.00000000      -0.05550245
2
Properties=species:S:1:pos:R:3:forces:R:3 energy=-1.1835273703738338 pbc="F F F"
Ag       0.00000000       0.00000000       0.00000000       0.00000000       0.00000000       0.05058623
Ag       0.00000000       0.00000000       5.40404040       0.00000000       0.00000000      -0.05058623
2
Properties=species:S:1:pos:R:3:forces:R:3 energy=-1.180681058228509 pbc="F F F"
Ag       0.00000000       0.00000000       0.00000000       0.00000000       0.00000000       0.04478835
Ag       0.00000000       0.00000000       5.46363636       0.00000000       0.00000000      -0.04478835
2
Properties=species:S:1:pos:R:3:forces:R:3 energy=-1.1782030339819698 pbc="F F F"
Ag       0.00000000       0.00000000       0.00000000       0.00000000       0.00000000       0.03833318
Ag       0.00000000       0.00000000       5.52323232       0.00000000       0.00000000      -0.03833318
2
Properties=species:S:1:pos:R:3:forces:R:3 energy=-1.1761174439227524 pbc="F F F"
Ag       0.00000000       0.00000000       0.00000000       0.00000000       0.00000000       0.03161185
Ag       0.00000000       0.00000000       5.58282828       0.00000000       0.00000000      -0.03161185
2
Properties=species:S:1:pos:R:3:forces:R:3 energy=-1.1744299779063154 pbc="F F F"
Ag       0.00000000       0.00000000       0.00000000       0.00000000       0.00000000       0.02510816
Ag       0.00000000       0.00000000       5.64242424       0.00000000       0.00000000      -0.02510816
2
Properties=species:S:1:pos:R:3:forces:R:3 energy=-1.1731119634184166 pbc="F F F"
Ag       0.00000000       0.00000000       0.00000000       0.00000000       0.00000000       0.01929422
Ag       0.00000000       0.00000000       5.70202020       0.00000000       0.00000000      -0.01929422
2
Properties=species:S:1:pos:R:3:forces:R:3 energy=-1.1721084828941795 pbc="F F F"
Ag       0.00000000       0.00000000       0.00000000       0.00000000       0.00000000       0.01455237
Ag       0.00000000       0.00000000       5.76161616       0.00000000       0.00000000      -0.01455237
2
Properties=species:S:1:pos:R:3:forces:R:3 energy=-1.1713510209901634 pbc="F F F"
Ag       0.00000000       0.00000000       0.00000000       0.00000000       0.00000000       0.01108746
Ag       0.00000000       0.00000000       5.82121212       0.00000000       0.00000000      -0.01108746
2
Properties=species:S:1:pos:R:3:forces:R:3 energy=-1.1707620309673215 pbc="F F F"
Ag       0.00000000       0.00000000       0.00000000       0.00000000       0.00000000       0.00889463
Ag       0.00000000       0.00000000       5.88080808       0.00000000       0.00000000      -0.00889463
2
Properties=species:S:1:pos:R:3:forces:R:3 energy=-1.1702709039840666 pbc="F F F"
Ag       0.00000000       0.00000000       0.00000000       0.00000000       0.00000000       0.00773217
Ag       0.00000000       0.00000000       5.94040404       0.00000000       0.00000000      -0.00773217
2
Properties=species:S:1:pos:R:3:forces:R:3 energy=-1.1698280650947936 pbc="F F F"
Ag       0.00000000       0.00000000       0.00000000       0.00000000       0.00000000       0.00717060
Ag       0.00000000       0.00000000       6.00000000       0.00000000       0.00000000      -0.00717060
