2
Properties=species:S:1:pos:R:3:forces:R:3 energy=12604.274040661641 pbc="F F F"
Al       0.00000000       0.00000000       0.00000000       0.00000000       0.00000000 -153658.01562500
Al       0.00000000       0.00000000       0.18000000       0.00000000       0.00000000  153658.01562500
2
Properties=species:S:1:pos:R:3:forces:R:3 energy=5154.16564222414 pbc="F F F"
Al       0.00000000       0.00000000       0.00000000       0.00000000       0.00000000  -95912.60937500
Al       0.00000000       0.00000000       0.23878788       0.00000000       0.00000000   95912.60937500
2
Properties=species:S:1:pos:R:3:forces:R:3 energy=1345.4222340210156 pbc="F F F"
Al       0.00000000       0.00000000       0.00000000       0.00000000       0.00000000  -36966.44531250
Al       0.00000000       0.00000000       0.29757576       0.00000000       0.00000000   36966.44531250
2
Properties=species:S:1:pos:R:3:forces:R:3 energy=187.4666981386794 pbc="F F F"
Al       0.00000000       0.00000000       0.00000000       0.00000000       0.00000000   -7844.73437500
Al       0.00000000       0.00000000       0.35636364       0.00000000       0.00000000    7844.73437500
2
Properties=species:S:1:pos:R:3:forces:R:3 energy=34.310879212141685 pbc="F F F"
Al       0.00000000       0.00000000       0.00000000       0.00000000       0.00000000   -2709.66015625
Al       0.00000000       0.00000000       0.41515152       0.00000000       0.00000000    2709.66015625
2
Properties=species:S:1:pos:R:3:forces:R:3 energy=-44.3691439685464 pbc="F F F"
Al       0.00000000       0.00000000       0.00000000       0.00000000       0.00000000    -216.28694153
Al       0.00000000       0.00000000       0.47393939       0.00000000       0.00000000     216.28694153
2
Properties=species:S:1:pos:R:3:forces:R:3 energy=-40.63754603014191 pbc="F F F"
Al       0.00000000       0.00000000       0.00000000       0.00000000       0.00000000     388.19769287
Al       0.00000000       0.00000000       0.53272727       0.00000000       0.00000000    -388.19769287
2
Properties=species:S:1:pos:R:3:forces:R:3 energy=-26.747325324695627 pbc="F F F"
Al       0.00000000       0.00000000       0.00000000       0.00000000       0.00000000     132.97410583
Al       0.00000000       0.00000000       0.59151515       0.00000000       0.00000000    -132.97410583
2
Properties=species:S:1:pos:R:3:forces:R:3 energy=-20.908580099802172 pbc="F F F"
Al       0.00000000       0.00000000       0.00000000       0.00000000       0.00000000      78.81715393
Al       0.00000000       0.00000000       0.65030303       0.00000000       0.00000000     -78.81715393
2
Properties=species:S:1:pos:R:3:forces:R:3 energy=-17.015282745976496 pbc="F F F"
Al       0.00000000       0.00000000       0.00000000       0.00000000       0.00000000      59.06744003
Al       0.00000000       0.00000000       0.70909091       0.00000000       0.00000000     -59.06744003
2
Properties=species:S:1:pos:R:3:forces:R:3 energy=-14.194363455685489 pbc="F F F"
Al       0.00000000       0.00000000       0.00000000       0.00000000       0.00000000      39.82168198
Al       0.00000000       0.00000000       0.76787879       0.00000000       0.00000000     -39.82168198
2
Properties=species:S:1:pos:R:3:forces:R:3 energy=-12.171328986118315 pbc="F F F"
Al       0.00000000       0.00000000       0.00000000       0.00000000       0.00000000      30.98197556
Al       0.00000000       0.00000000       0.82666667       0.00000000       0.00000000     -30.98197556
2
Properties=species:S:1:pos:R:3:forces:R:3 energy=-10.054112350030346 pbc="F F F"
Al       0.00000000       0.00000000       0.00000000       0.00000000       0.00000000      38.44665527
Al       0.00000000       0.00000000       0.88545455       0.00000000       0.00000000     -38.44665527
2
Properties=species:S:1:pos:R:3:forces:R:3 energy=-6.774023184077347 pbc="F F F"
Al       0.00000000       0.00000000       0.00000000       0.00000000       0.00000000     104.40631104
Al       0.00000000       0.00000000       0.94424242       0.00000000       0.00000000    -104.40631104
2
Properties=species:S:1:pos:R:3:forces:R:3 energy=3.106876311608357 pbc="F F F"
Al       0.00000000       0.00000000       0.00000000       0.00000000       0.00000000     204.83610535
Al       0.00000000       0.00000000       1.00303030       0.00000000       0.00000000    -204.83610535
2
Properties=species:S:1:pos:R:3:forces:R:3 energy=14.109018691619147 pbc="F F F"
Al       0.00000000       0.00000000       0.00000000       0.00000000       0.00000000     166.32214355
Al       0.00000000       0.00000000       1.06181818       0.00000000       0.00000000    -166.32214355
2
Properties=species:S:1:pos:R:3:forces:R:3 energy=22.47669915855765 pbc="F F F"
Al       0.00000000       0.00000000       0.00000000       0.00000000       0.00000000     111.16946411
Al       0.00000000       0.00000000       1.12060606       0.00000000       0.00000000    -111.16946411
2
Properties=species:S:1:pos:R:3:forces:R:3 energy=26.262109573450726 pbc="F F F"
Al       0.00000000       0.00000000       0.00000000       0.00000000       0.00000000       8.30225277
Al       0.00000000       0.00000000       1.17939394       0.00000000       0.00000000      -8.30225277
2
Properties=species:S:1:pos:R:3:forces:R:3 energy=25.201626831737038 pbc="F F F"
Al       0.00000000       0.00000000       0.00000000       0.00000000       0.00000000     -41.75061035
Al       0.00000000       0.00000000       1.23818182       0.00000000       0.00000000      41.75061035
2
Properties=species:S:1:pos:R:3:forces:R:3 energy=22.18185921558699 pbc="F F F"
Al       0.00000000       0.00000000       0.00000000       0.00000000       0.00000000     -57.44998932
Al       0.00000000       0.00000000       1.29696970       0.00000000       0.00000000      57.44998932
2
Properties=species:S:1:pos:R:3:forces:R:3 energy=18.772406060345592 pbc="F F F"
Al       0.00000000       0.00000000       0.00000000       0.00000000       0.00000000     -58.18191910
Al       0.00000000       0.00000000       1.35575758       0.00000000       0.00000000      58.18191910
2
Properties=species:S:1:pos:R:3:forces:R:3 energy=15.356239357706881 pbc="F F F"
Al       0.00000000       0.00000000       0.00000000       0.00000000       0.00000000     -56.97240448
Al       0.00000000       0.00000000       1.41454545       0.00000000       0.00000000      56.97240448
2
Properties=species:S:1:pos:R:3:forces:R:3 energy=12.147876948144775 pbc="F F F"
Al       0.00000000       0.00000000       0.00000000       0.00000000       0.00000000     -51.71068192
Al       0.00000000       0.00000000       1.47333333       0.00000000       0.00000000      51.71068192
2
Properties=species:S:1:pos:R:3:forces:R:3 energy=9.335459038565219 pbc="F F F"
Al       0.00000000       0.00000000       0.00000000       0.00000000       0.00000000     -43.74695969
Al       0.00000000       0.00000000       1.53212121       0.00000000       0.00000000      43.74695969
2
Properties=species:S:1:pos:R:3:forces:R:3 energy=7.025801283885194 pbc="F F F"
Al       0.00000000       0.00000000       0.00000000       0.00000000       0.00000000     -35.07608795
Al       0.00000000       0.00000000       1.59090909       0.00000000       0.00000000      35.07608795
2
Properties=species:S:1:pos:R:3:forces:R:3 energy=5.167440956114058 pbc="F F F"
Al       0.00000000       0.00000000       0.00000000       0.00000000       0.00000000     -28.08858681
Al       0.00000000       0.00000000       1.64969697       0.00000000       0.00000000      28.08858681
2
Properties=species:S:1:pos:R:3:forces:R:3 energy=3.6827474576933024 pbc="F F F"
Al       0.00000000       0.00000000       0.00000000       0.00000000       0.00000000     -22.74706268
Al       0.00000000       0.00000000       1.70848485       0.00000000       0.00000000      22.74706268
2
Properties=species:S:1:pos:R:3:forces:R:3 energy=2.4803811861225182 pbc="F F F"
Al       0.00000000       0.00000000       0.00000000       0.00000000       0.00000000     -18.43280029
Al       0.00000000       0.00000000       1.76727273       0.00000000       0.00000000      18.43280029
2
Properties=species:S:1:pos:R:3:forces:R:3 energy=1.474979279198659 pbc="F F F"
Al       0.00000000       0.00000000       0.00000000       0.00000000       0.00000000     -15.80687428
Al       0.00000000       0.00000000       1.82606061       0.00000000       0.00000000      15.80687428
2
Properties=species:S:1:pos:R:3:forces:R:3 energy=0.6298429487293228 pbc="F F F"
Al       0.00000000       0.00000000       0.00000000       0.00000000       0.00000000     -13.13609409
Al       0.00000000       0.00000000       1.88484848       0.00000000       0.00000000      13.13609409
2
Properties=species:S:1:pos:R:3:forces:R:3 energy=-0.08435371199517783 pbc="F F F"
Al       0.00000000       0.00000000       0.00000000       0.00000000       0.00000000     -11.16220570
Al       0.00000000       0.00000000       1.94363636       0.00000000       0.00000000      11.16220570
2
Properties=species:S:1:pos:R:3:forces:R:3 energy=-0.6871004824772039 pbc="F F F"
Al       0.00000000       0.00000000       0.00000000       0.00000000       0.00000000      -9.40459633
Al       0.00000000       0.00000000       2.00242424       0.00000000       0.00000000       9.40459633
2
Properties=species:S:1:pos:R:3:forces:R:3 energy=-1.1919783282101262 pbc="F F F"
Al       0.00000000       0.00000000       0.00000000       0.00000000       0.00000000      -7.75744009
Al       0.00000000       0.00000000       2.06121212       0.00000000       0.00000000       7.75744009
2
Properties=species:S:1:pos:R:3:forces:R:3 energy=-1.598327205196683 pbc="F F F"
Al       0.00000000       0.00000000       0.00000000       0.00000000       0.00000000      -6.06054258
Al       0.00000000       0.00000000       2.12000000       0.00000000       0.00000000       6.06054258
2
Properties=species:S:1:pos:R:3:forces:R:3 energy=-1.9086651874352003 pbc="F F F"
Al       0.00000000       0.00000000       0.00000000       0.00000000       0.00000000      -4.57671690
Al       0.00000000       0.00000000       2.17878788       0.00000000       0.00000000       4.57671690
2
Properties=species:S:1:pos:R:3:forces:R:3 energy=-2.143481506455769 pbc="F F F"
Al       0.00000000       0.00000000       0.00000000       0.00000000       0.00000000      -3.44736767
Al       0.00000000       0.00000000       2.23757576       0.00000000       0.00000000       3.44736767
2
Properties=species:S:1:pos:R:3:forces:R:3 energy=-2.3191240027210154 pbc="F F F"
Al       0.00000000       0.00000000       0.00000000       0.00000000       0.00000000      -2.56726503
Al       0.00000000       0.00000000       2.29636364       0.00000000       0.00000000       2.56726503
2
Properties=species:S:1:pos:R:3:forces:R:3 energy=-2.4472242120687704 pbc="F F F"
Al       0.00000000       0.00000000       0.00000000       0.00000000       0.00000000      -1.79806662
Al       0.00000000       0.00000000       2.35515152       0.00000000       0.00000000       1.79806662
2
Properties=species:S:1:pos:R:3:forces:R:3 energy=-2.533027634039507 pbc="F F F"
Al       0.00000000       0.00000000       0.00000000       0.00000000       0.00000000      -1.14998686
Al       0.00000000       0.00000000       2.41393939       0.00000000       0.00000000       1.14998686
2
Properties=species:S:1:pos:R:3:forces:R:3 energy=-2.585368937142753 pbc="F F F"
Al       0.00000000       0.00000000       0.00000000       0.00000000       0.00000000      -0.65289909
Al       0.00000000       0.00000000       2.47272727       0.00000000       0.00000000       0.65289909
2
Properties=species:S:1:pos:R:3:forces:R:3 energy=-2.6119251163031043 pbc="F F F"
Al       0.00000000       0.00000000       0.00000000       0.00000000       0.00000000      -0.26263753
Al       0.00000000       0.00000000       2.53151515       0.00000000       0.00000000       0.26263753
2
Properties=species:S:1:pos:R:3:forces:R:3 energy=-2.6173691160272172 pbc="F F F"
Al       0.00000000       0.00000000       0.00000000       0.00000000       0.00000000       0.06748300
Al       0.00000000       0.00000000       2.59030303       0.00000000       0.00000000      -0.06748300
2
Properties=species:S:1:pos:R:3:forces:R:3 energy=-2.605289424427573 pbc="F F F"
Al       0.00000000       0.00000000       0.00000000       0.00000000       0.00000000       0.33221114
Al       0.00000000       0.00000000       2.64909091       0.00000000       0.00000000      -0.33221114
2
Properties=species:S:1:pos:R:3:forces:R:3 energy=-2.579518263161919 pbc="F F F"
Al       0.00000000       0.00000000       0.00000000       0.00000000       0.00000000       0.53565264
Al       0.00000000       0.00000000       2.70787879       0.00000000       0.00000000      -0.53565264
2
Properties=species:S:1:pos:R:3:forces:R:3 energy=-2.5432458021614424 pbc="F F F"
Al       0.00000000       0.00000000       0.00000000       0.00000000       0.00000000       0.69052005
Al       0.00000000       0.00000000       2.76666667       0.00000000       0.00000000      -0.69052005
2
Properties=species:S:1:pos:R:3:forces:R:3 energy=-2.499313137189525 pbc="F F F"
Al       0.00000000       0.00000000       0.00000000       0.00000000       0.00000000       0.79535967
Al       0.00000000       0.00000000       2.82545455       0.00000000       0.00000000      -0.79535967
2
Properties=species:S:1:pos:R:3:forces:R:3 energy=-2.4507149089091502 pbc="F F F"
Al       0.00000000       0.00000000       0.00000000       0.00000000       0.00000000       0.85052049
Al       0.00000000       0.00000000       2.88424242       0.00000000       0.00000000      -0.85052049
2
Properties=species:S:1:pos:R:3:forces:R:3 energy=-2.400008352139036 pbc="F F F"
Al       0.00000000       0.00000000       0.00000000       0.00000000       0.00000000       0.87042165
Al       0.00000000       0.00000000       2.94303030       0.00000000       0.00000000      -0.87042165
2
Properties=species:S:1:pos:R:3:forces:R:3 energy=-2.348641233437882 pbc="F F F"
Al       0.00000000       0.00000000       0.00000000       0.00000000       0.00000000       0.87641233
Al       0.00000000       0.00000000       3.00181818       0.00000000       0.00000000      -0.87641233
2
Properties=species:S:1:pos:R:3:forces:R:3 energy=-2.29696338593009 pbc="F F F"
Al       0.00000000       0.00000000       0.00000000       0.00000000       0.00000000       0.88163292
Al       0.00000000       0.00000000       3.06060606       0.00000000       0.00000000      -0.88163292
2
Properties=species:S:1:pos:R:3:forces:R:3 energy=-2.2450925690112085 pbc="F F F"
Al       0.00000000       0.00000000       0.00000000       0.00000000       0.00000000       0.88117146
Al       0.00000000       0.00000000       3.11939394       0.00000000       0.00000000      -0.88117146
2
Properties=species:S:1:pos:R:3:forces:R:3 energy=-2.1936498095220682 pbc="F F F"
Al       0.00000000       0.00000000       0.00000000       0.00000000       0.00000000       0.86628115
Al       0.00000000       0.00000000       3.17818182       0.00000000       0.00000000      -0.86628115
2
Properties=species:S:1:pos:R:3:forces:R:3 energy=-2.1435127862554304 pbc="F F F"
Al       0.00000000       0.00000000       0.00000000       0.00000000       0.00000000       0.83759356
Al       0.00000000       0.00000000       3.23696970       0.00000000       0.00000000      -0.83759356
2
Properties=species:S:1:pos:R:3:forces:R:3 energy=-2.0953200123416265 pbc="F F F"
Al       0.00000000       0.00000000       0.00000000       0.00000000       0.00000000       0.80116343
Al       0.00000000       0.00000000       3.29575758       0.00000000       0.00000000      -0.80116343
2
Properties=species:S:1:pos:R:3:forces:R:3 energy=-2.0493575097750494 pbc="F F F"
Al       0.00000000       0.00000000       0.00000000       0.00000000       0.00000000       0.76239151
Al       0.00000000       0.00000000       3.35454545       0.00000000       0.00000000      -0.76239151
2
Properties=species:S:1:pos:R:3:forces:R:3 energy=-2.005676011517923 pbc="F F F"
Al       0.00000000       0.00000000       0.00000000       0.00000000       0.00000000       0.72385865
Al       0.00000000       0.00000000       3.41333333       0.00000000       0.00000000      -0.72385865
2
Properties=species:S:1:pos:R:3:forces:R:3 energy=-1.9642333858040149 pbc="F F F"
Al       0.00000000       0.00000000       0.00000000       0.00000000       0.00000000       0.68623328
Al       0.00000000       0.00000000       3.47212121       0.00000000       0.00000000      -0.68623328
2
Properties=species:S:1:pos:R:3:forces:R:3 energy=-1.9249697323928157 pbc="F F F"
Al       0.00000000       0.00000000       0.00000000       0.00000000       0.00000000       0.64968795
Al       0.00000000       0.00000000       3.53090909       0.00000000       0.00000000      -0.64968795
2
Properties=species:S:1:pos:R:3:forces:R:3 energy=-1.8878273847726423 pbc="F F F"
Al       0.00000000       0.00000000       0.00000000       0.00000000       0.00000000       0.61402529
Al       0.00000000       0.00000000       3.58969697       0.00000000       0.00000000      -0.61402529
2
Properties=species:S:1:pos:R:3:forces:R:3 energy=-1.852769854630845 pbc="F F F"
Al       0.00000000       0.00000000       0.00000000       0.00000000       0.00000000       0.57870543
Al       0.00000000       0.00000000       3.64848485       0.00000000       0.00000000      -0.57870543
2
Properties=species:S:1:pos:R:3:forces:R:3 energy=-1.8197845308382778 pbc="F F F"
Al       0.00000000       0.00000000       0.00000000       0.00000000       0.00000000       0.54347509
Al       0.00000000       0.00000000       3.70727273       0.00000000       0.00000000      -0.54347509
2
Properties=species:S:1:pos:R:3:forces:R:3 energy=-1.7888593157726815 pbc="F F F"
Al       0.00000000       0.00000000       0.00000000       0.00000000       0.00000000       0.50877142
Al       0.00000000       0.00000000       3.76606061       0.00000000       0.00000000      -0.50877142
2
Properties=species:S:1:pos:R:3:forces:R:3 energy=-1.7599390650828655 pbc="F F F"
Al       0.00000000       0.00000000       0.00000000       0.00000000       0.00000000       0.47542399
Al       0.00000000       0.00000000       3.82484848       0.00000000       0.00000000      -0.47542399
2
Properties=species:S:1:pos:R:3:forces:R:3 energy=-1.7329214528815537 pbc="F F F"
Al       0.00000000       0.00000000       0.00000000       0.00000000       0.00000000       0.44409057
Al       0.00000000       0.00000000       3.88363636       0.00000000       0.00000000      -0.44409057
2
Properties=species:S:1:pos:R:3:forces:R:3 energy=-1.7076800626695963 pbc="F F F"
Al       0.00000000       0.00000000       0.00000000       0.00000000       0.00000000       0.41494960
Al       0.00000000       0.00000000       3.94242424       0.00000000       0.00000000      -0.41494960
2
Properties=species:S:1:pos:R:3:forces:R:3 energy=-1.6840946308175542 pbc="F F F"
Al       0.00000000       0.00000000       0.00000000       0.00000000       0.00000000       0.38776946
Al       0.00000000       0.00000000       4.00121212       0.00000000       0.00000000      -0.38776946
2
Properties=species:S:1:pos:R:3:forces:R:3 energy=-1.6620573309799533 pbc="F F F"
Al       0.00000000       0.00000000       0.00000000       0.00000000       0.00000000       0.36220068
Al       0.00000000       0.00000000       4.06000000       0.00000000       0.00000000      -0.36220068
2
Properties=species:S:1:pos:R:3:forces:R:3 energy=-1.641480870823508 pbc="F F F"
Al       0.00000000       0.00000000       0.00000000       0.00000000       0.00000000       0.33802909
Al       0.00000000       0.00000000       4.11878788       0.00000000       0.00000000      -0.33802909
2
Properties=species:S:1:pos:R:3:forces:R:3 energy=-1.6222879635957748 pbc="F F F"
Al       0.00000000       0.00000000       0.00000000       0.00000000       0.00000000       0.31523007
Al       0.00000000       0.00000000       4.17757576       0.00000000       0.00000000      -0.31523007
2
Properties=species:S:1:pos:R:3:forces:R:3 energy=-1.6043902839337474 pbc="F F F"
Al       0.00000000       0.00000000       0.00000000       0.00000000       0.00000000       0.29388082
Al       0.00000000       0.00000000       4.23636364       0.00000000       0.00000000      -0.29388082
2
Properties=species:S:1:pos:R:3:forces:R:3 energy=-1.5877036221147902 pbc="F F F"
Al       0.00000000       0.00000000       0.00000000       0.00000000       0.00000000       0.27404013
Al       0.00000000       0.00000000       4.29515152       0.00000000       0.00000000      -0.27404013
2
Properties=species:S:1:pos:R:3:forces:R:3 energy=-1.5721401564596187 pbc="F F F"
Al       0.00000000       0.00000000       0.00000000       0.00000000       0.00000000       0.25568879
Al       0.00000000       0.00000000       4.35393939       0.00000000       0.00000000      -0.25568879
2
Properties=species:S:1:pos:R:3:forces:R:3 energy=-1.5576139536306488 pbc="F F F"
Al       0.00000000       0.00000000       0.00000000       0.00000000       0.00000000       0.23872492
Al       0.00000000       0.00000000       4.41272727       0.00000000       0.00000000      -0.23872492
2
Properties=species:S:1:pos:R:3:forces:R:3 energy=-1.5440486233691044 pbc="F F F"
Al       0.00000000       0.00000000       0.00000000       0.00000000       0.00000000       0.22299102
Al       0.00000000       0.00000000       4.47151515       0.00000000       0.00000000      -0.22299102
2
Properties=species:S:1:pos:R:3:forces:R:3 energy=-1.5313760575419535 pbc="F F F"
Al       0.00000000       0.00000000       0.00000000       0.00000000       0.00000000       0.20829615
Al       0.00000000       0.00000000       4.53030303       0.00000000       0.00000000      -0.20829615
2
Properties=species:S:1:pos:R:3:forces:R:3 energy=-1.5195411826743785 pbc="F F F"
Al       0.00000000       0.00000000       0.00000000       0.00000000       0.00000000       0.19444157
Al       0.00000000       0.00000000       4.58909091       0.00000000       0.00000000      -0.19444157
2
Properties=species:S:1:pos:R:3:forces:R:3 energy=-1.508499967069946 pbc="F F F"
Al       0.00000000       0.00000000       0.00000000       0.00000000       0.00000000       0.18126416
Al       0.00000000       0.00000000       4.64787879       0.00000000       0.00000000      -0.18126416
2
Properties=species:S:1:pos:R:3:forces:R:3 energy=-1.4982182390530956 pbc="F F F"
Al       0.00000000       0.00000000       0.00000000       0.00000000       0.00000000       0.16867490
Al       0.00000000       0.00000000       4.70666667       0.00000000       0.00000000      -0.16867490
2
Properties=species:S:1:pos:R:3:forces:R:3 energy=-1.488656516879098 pbc="F F F"
Al       0.00000000       0.00000000       0.00000000       0.00000000       0.00000000       0.15669727
Al       0.00000000       0.00000000       4.76545455       0.00000000       0.00000000      -0.15669727
2
Properties=species:S:1:pos:R:3:forces:R:3 energy=-1.4797775145835215 pbc="F F F"
Al       0.00000000       0.00000000       0.00000000       0.00000000       0.00000000       0.14546779
Al       0.00000000       0.00000000       4.82424242       0.00000000       0.00000000      -0.14546779
2
Properties=species:S:1:pos:R:3:forces:R:3 energy=-1.4715337410482972 pbc="F F F"
Al       0.00000000       0.00000000       0.00000000       0.00000000       0.00000000       0.13520110
Al       0.00000000       0.00000000       4.88303030       0.00000000       0.00000000      -0.13520110
2
Properties=species:S:1:pos:R:3:forces:R:3 energy=-1.463858866247717 pbc="F F F"
Al       0.00000000       0.00000000       0.00000000       0.00000000       0.00000000       0.12610734
Al       0.00000000       0.00000000       4.94181818       0.00000000       0.00000000      -0.12610734
2
Properties=species:S:1:pos:R:3:forces:R:3 energy=-1.456680158612324 pbc="F F F"
Al       0.00000000       0.00000000       0.00000000       0.00000000       0.00000000       0.11829942
Al       0.00000000       0.00000000       5.00060606       0.00000000       0.00000000      -0.11829942
2
Properties=species:S:1:pos:R:3:forces:R:3 energy=-1.449925260535524 pbc="F F F"
Al       0.00000000       0.00000000       0.00000000       0.00000000       0.00000000       0.11171299
Al       0.00000000       0.00000000       5.05939394       0.00000000       0.00000000      -0.11171299
2
Properties=species:S:1:pos:R:3:forces:R:3 energy=-1.4435287706430477 pbc="F F F"
Al       0.00000000       0.00000000       0.00000000       0.00000000       0.00000000       0.10606582
Al       0.00000000       0.00000000       5.11818182       0.00000000       0.00000000      -0.10606582
2
Properties=species:S:1:pos:R:3:forces:R:3 energy=-1.4374466803723165 pbc="F F F"
Al       0.00000000       0.00000000       0.00000000       0.00000000       0.00000000       0.10088734
Al       0.00000000       0.00000000       5.17696970       0.00000000       0.00000000      -0.10088734
2
Properties=species:S:1:pos:R:3:forces:R:3 energy=-1.43166787983677 pbc="F F F"
Al       0.00000000       0.00000000       0.00000000       0.00000000       0.00000000       0.09560724
Al       0.00000000       0.00000000       5.23575758       0.00000000       0.00000000      -0.09560724
2
Properties=species:S:1:pos:R:3:forces:R:3 energy=-1.4262179677713989 pbc="F F F"
Al       0.00000000       0.00000000       0.00000000       0.00000000       0.00000000       0.08966936
Al       0.00000000       0.00000000       5.29454545       0.00000000       0.00000000      -0.08966936
2
Properties=species:S:1:pos:R:3:forces:R:3 energy=-1.421146978895607 pbc="F F F"
Al       0.00000000       0.00000000       0.00000000       0.00000000       0.00000000       0.08266727
Al       0.00000000       0.00000000       5.35333333       0.00000000       0.00000000      -0.08266727
2
Properties=species:S:1:pos:R:3:forces:R:3 energy=-1.4165217814451678 pbc="F F F"
Al       0.00000000       0.00000000       0.00000000       0.00000000       0.00000000       0.07443269
Al       0.00000000       0.00000000       5.41212121       0.00000000       0.00000000      -0.07443269
2
Properties=species:S:1:pos:R:3:forces:R:3 energy=-1.4124165752751043 pbc="F F F"
Al       0.00000000       0.00000000       0.00000000       0.00000000       0.00000000       0.06507771
Al       0.00000000       0.00000000       5.47090909       0.00000000       0.00000000      -0.06507771
2
Properties=species:S:1:pos:R:3:forces:R:3 energy=-1.4088862745100272 pbc="F F F"
Al       0.00000000       0.00000000       0.00000000       0.00000000       0.00000000       0.05498708
Al       0.00000000       0.00000000       5.52969697       0.00000000       0.00000000      -0.05498708
2
Properties=species:S:1:pos:R:3:forces:R:3 energy=-1.4059551046340262 pbc="F F F"
Al       0.00000000       0.00000000       0.00000000       0.00000000       0.00000000       0.04473858
Al       0.00000000       0.00000000       5.58848485       0.00000000       0.00000000      -0.04473858
2
Properties=species:S:1:pos:R:3:forces:R:3 energy=-1.403615674158931 pbc="F F F"
Al       0.00000000       0.00000000       0.00000000       0.00000000       0.00000000       0.03501233
Al       0.00000000       0.00000000       5.64727273       0.00000000       0.00000000      -0.03501233
2
Properties=species:S:1:pos:R:3:forces:R:3 energy=-1.4018166196237967 pbc="F F F"
Al       0.00000000       0.00000000       0.00000000       0.00000000       0.00000000       0.02644698
Al       0.00000000       0.00000000       5.70606061       0.00000000       0.00000000      -0.02644698
2
Properties=species:S:1:pos:R:3:forces:R:3 energy=-1.4004731506573163 pbc="F F F"
Al       0.00000000       0.00000000       0.00000000       0.00000000       0.00000000       0.01954323
Al       0.00000000       0.00000000       5.76484848       0.00000000       0.00000000      -0.01954323
2
Properties=species:S:1:pos:R:3:forces:R:3 energy=-1.399481365387989 pbc="F F F"
Al       0.00000000       0.00000000       0.00000000       0.00000000       0.00000000       0.01456730
Al       0.00000000       0.00000000       5.82363636       0.00000000       0.00000000      -0.01456730
2
Properties=species:S:1:pos:R:3:forces:R:3 energy=-1.3987220762287635 pbc="F F F"
Al       0.00000000       0.00000000       0.00000000       0.00000000       0.00000000       0.01146967
Al       0.00000000       0.00000000       5.88242424       0.00000000       0.00000000      -0.01146967
2
Properties=species:S:1:pos:R:3:forces:R:3 energy=-1.3981018677658417 pbc="F F F"
Al       0.00000000       0.00000000       0.00000000       0.00000000       0.00000000       0.00988245
Al       0.00000000       0.00000000       5.94121212       0.00000000       0.00000000      -0.00988245
2
Properties=species:S:1:pos:R:3:forces:R:3 energy=-1.3975445121059202 pbc="F F F"
Al       0.00000000       0.00000000       0.00000000       0.00000000       0.00000000       0.00916749
Al       0.00000000       0.00000000       6.00000000       0.00000000       0.00000000      -0.00916749
