2
Properties=species:S:1:pos:R:3:forces:R:3 energy=1738079.7091596131 pbc="F F F"
Au       0.00000000       0.00000000       0.00000000       0.00000000       0.00000000 -14797785.00000000
Au       0.00000000       0.00000000       0.18000000       0.00000000       0.00000000 14797785.00000000
2
Properties=species:S:1:pos:R:3:forces:R:3 energy=972544.5216596132 pbc="F F F"
Au       0.00000000       0.00000000       0.00000000       0.00000000       0.00000000 -10914648.00000000
Au       0.00000000       0.00000000       0.23878788       0.00000000       0.00000000 10914648.00000000
2
Properties=species:S:1:pos:R:3:forces:R:3 energy=465823.67790961324 pbc="F F F"
Au       0.00000000       0.00000000       0.00000000       0.00000000       0.00000000 -6415438.00000000
Au       0.00000000       0.00000000       0.29757576       0.00000000       0.00000000 6415438.00000000
2
Properties=species:S:1:pos:R:3:forces:R:3 energy=194653.33415961958 pbc="F F F"
Au       0.00000000       0.00000000       0.00000000       0.00000000       0.00000000 -3092997.75000000
Au       0.00000000       0.00000000       0.35636364       0.00000000       0.00000000 3092997.75000000
2
Properties=species:S:1:pos:R:3:forces:R:3 energy=72257.03728462591 pbc="F F F"
Au       0.00000000       0.00000000       0.00000000       0.00000000       0.00000000 -1270472.50000000
Au       0.00000000       0.00000000       0.41515152       0.00000000       0.00000000 1270472.50000000
2
Properties=species:S:1:pos:R:3:forces:R:3 energy=24666.506034638576 pbc="F F F"
Au       0.00000000       0.00000000       0.00000000       0.00000000       0.00000000 -473371.81250000
Au       0.00000000       0.00000000       0.47393939       0.00000000       0.00000000  473371.81250000
2
Properties=species:S:1:pos:R:3:forces:R:3 energy=8116.09099560142 pbc="F F F"
Au       0.00000000       0.00000000       0.00000000       0.00000000       0.00000000 -152293.89062500
Au       0.00000000       0.00000000       0.53272727       0.00000000       0.00000000  152293.89062500
2
Properties=species:S:1:pos:R:3:forces:R:3 energy=2524.8610151738517 pbc="F F F"
Au       0.00000000       0.00000000       0.00000000       0.00000000       0.00000000  -48511.88281250
Au       0.00000000       0.00000000       0.59151515       0.00000000       0.00000000   48511.88281250
2
Properties=species:S:1:pos:R:3:forces:R:3 energy=853.5869063599929 pbc="F F F"
Au       0.00000000       0.00000000       0.00000000       0.00000000       0.00000000  -14661.04492188
Au       0.00000000       0.00000000       0.65030303       0.00000000       0.00000000   14661.04492188
2
Properties=species:S:1:pos:R:3:forces:R:3 energy=369.7821579388782 pbc="F F F"
Au       0.00000000       0.00000000       0.00000000       0.00000000       0.00000000   -4527.51708984
Au       0.00000000       0.00000000       0.70909091       0.00000000       0.00000000    4527.51708984
2
Properties=species:S:1:pos:R:3:forces:R:3 energy=194.33309195416686 pbc="F F F"
Au       0.00000000       0.00000000       0.00000000       0.00000000       0.00000000   -1726.81311035
Au       0.00000000       0.00000000       0.76787879       0.00000000       0.00000000    1726.81311035
2
Properties=species:S:1:pos:R:3:forces:R:3 energy=124.46257066218247 pbc="F F F"
Au       0.00000000       0.00000000       0.00000000       0.00000000       0.00000000    -762.30908203
Au       0.00000000       0.00000000       0.82666667       0.00000000       0.00000000     762.30908203
2
Properties=species:S:1:pos:R:3:forces:R:3 energy=89.38030326841937 pbc="F F F"
Au       0.00000000       0.00000000       0.00000000       0.00000000       0.00000000    -433.64071655
Au       0.00000000       0.00000000       0.88545455       0.00000000       0.00000000     433.64071655
2
Properties=species:S:1:pos:R:3:forces:R:3 energy=69.39556257066906 pbc="F F F"
Au       0.00000000       0.00000000       0.00000000       0.00000000       0.00000000    -271.88299561
Au       0.00000000       0.00000000       0.94424242       0.00000000       0.00000000     271.88299561
2
Properties=species:S:1:pos:R:3:forces:R:3 energy=56.83363929954833 pbc="F F F"
Au       0.00000000       0.00000000       0.00000000       0.00000000       0.00000000    -152.03201294
Au       0.00000000       0.00000000       1.00303030       0.00000000       0.00000000     152.03201294
2
Properties=species:S:1:pos:R:3:forces:R:3 energy=50.33530727260005 pbc="F F F"
Au       0.00000000       0.00000000       0.00000000       0.00000000       0.00000000     -77.74291229
Au       0.00000000       0.00000000       1.06181818       0.00000000       0.00000000      77.74291229
2
Properties=species:S:1:pos:R:3:forces:R:3 energy=46.17287873332642 pbc="F F F"
Au       0.00000000       0.00000000       0.00000000       0.00000000       0.00000000     -79.28231049
Au       0.00000000       0.00000000       1.12060606       0.00000000       0.00000000      79.28231049
2
Properties=species:S:1:pos:R:3:forces:R:3 energy=40.54871199410131 pbc="F F F"
Au       0.00000000       0.00000000       0.00000000       0.00000000       0.00000000    -108.87731171
Au       0.00000000       0.00000000       1.17939394       0.00000000       0.00000000     108.87731171
2
Properties=species:S:1:pos:R:3:forces:R:3 energy=34.26050231937496 pbc="F F F"
Au       0.00000000       0.00000000       0.00000000       0.00000000       0.00000000    -110.33593750
Au       0.00000000       0.00000000       1.23818182       0.00000000       0.00000000     110.33593750
2
Properties=species:S:1:pos:R:3:forces:R:3 energy=27.818808898884573 pbc="F F F"
Au       0.00000000       0.00000000       0.00000000       0.00000000       0.00000000    -109.56605530
Au       0.00000000       0.00000000       1.29696970       0.00000000       0.00000000     109.56605530
2
Properties=species:S:1:pos:R:3:forces:R:3 energy=21.601159096281517 pbc="F F F"
Au       0.00000000       0.00000000       0.00000000       0.00000000       0.00000000    -100.86370850
Au       0.00000000       0.00000000       1.35575758       0.00000000       0.00000000     100.86370850
2
Properties=species:S:1:pos:R:3:forces:R:3 energy=16.051099358787262 pbc="F F F"
Au       0.00000000       0.00000000       0.00000000       0.00000000       0.00000000     -85.85080719
Au       0.00000000       0.00000000       1.41454545       0.00000000       0.00000000      85.85080719
2
Properties=species:S:1:pos:R:3:forces:R:3 energy=11.546010234893604 pbc="F F F"
Au       0.00000000       0.00000000       0.00000000       0.00000000       0.00000000     -67.99135590
Au       0.00000000       0.00000000       1.47333333       0.00000000       0.00000000      67.99135590
2
Properties=species:S:1:pos:R:3:forces:R:3 energy=7.968800748447117 pbc="F F F"
Au       0.00000000       0.00000000       0.00000000       0.00000000       0.00000000     -53.67519760
Au       0.00000000       0.00000000       1.53212121       0.00000000       0.00000000      53.67519760
2
Properties=species:S:1:pos:R:3:forces:R:3 energy=5.285681489658582 pbc="F F F"
Au       0.00000000       0.00000000       0.00000000       0.00000000       0.00000000     -38.06620407
Au       0.00000000       0.00000000       1.59090909       0.00000000       0.00000000      38.06620407
2
Properties=species:S:1:pos:R:3:forces:R:3 energy=3.382449265225451 pbc="F F F"
Au       0.00000000       0.00000000       0.00000000       0.00000000       0.00000000     -27.43763161
Au       0.00000000       0.00000000       1.64969697       0.00000000       0.00000000      27.43763161
2
Properties=species:S:1:pos:R:3:forces:R:3 energy=1.9836360361375076 pbc="F F F"
Au       0.00000000       0.00000000       0.00000000       0.00000000       0.00000000     -20.49542999
Au       0.00000000       0.00000000       1.70848485       0.00000000       0.00000000      20.49542999
2
Properties=species:S:1:pos:R:3:forces:R:3 energy=0.9277006667358527 pbc="F F F"
Au       0.00000000       0.00000000       0.00000000       0.00000000       0.00000000     -16.04430580
Au       0.00000000       0.00000000       1.76727273       0.00000000       0.00000000      16.04430580
2
Properties=species:S:1:pos:R:3:forces:R:3 energy=0.04459863183668339 pbc="F F F"
Au       0.00000000       0.00000000       0.00000000       0.00000000       0.00000000     -14.13761520
Au       0.00000000       0.00000000       1.82606061       0.00000000       0.00000000      14.13761520
2
Properties=species:S:1:pos:R:3:forces:R:3 energy=-0.7241894874801331 pbc="F F F"
Au       0.00000000       0.00000000       0.00000000       0.00000000       0.00000000     -11.98388290
Au       0.00000000       0.00000000       1.88484848       0.00000000       0.00000000      11.98388290
2
Properties=species:S:1:pos:R:3:forces:R:3 energy=-1.3673783815195952 pbc="F F F"
Au       0.00000000       0.00000000       0.00000000       0.00000000       0.00000000      -9.94568920
Au       0.00000000       0.00000000       1.94363636       0.00000000       0.00000000       9.94568920
2
Properties=species:S:1:pos:R:3:forces:R:3 energy=-1.8971536065164867 pbc="F F F"
Au       0.00000000       0.00000000       0.00000000       0.00000000       0.00000000      -8.10902500
Au       0.00000000       0.00000000       2.00242424       0.00000000       0.00000000       8.10902500
2
Properties=species:S:1:pos:R:3:forces:R:3 energy=-2.3275083355124306 pbc="F F F"
Au       0.00000000       0.00000000       0.00000000       0.00000000       0.00000000      -6.58647966
Au       0.00000000       0.00000000       2.06121212       0.00000000       0.00000000       6.58647966
2
Properties=species:S:1:pos:R:3:forces:R:3 energy=-2.674508527333181 pbc="F F F"
Au       0.00000000       0.00000000       0.00000000       0.00000000       0.00000000      -5.24194908
Au       0.00000000       0.00000000       2.12000000       0.00000000       0.00000000       5.24194908
2
Properties=species:S:1:pos:R:3:forces:R:3 energy=-2.949362298898855 pbc="F F F"
Au       0.00000000       0.00000000       0.00000000       0.00000000       0.00000000      -4.16362143
Au       0.00000000       0.00000000       2.17878788       0.00000000       0.00000000       4.16362143
2
Properties=species:S:1:pos:R:3:forces:R:3 energy=-3.1685272990824496 pbc="F F F"
Au       0.00000000       0.00000000       0.00000000       0.00000000       0.00000000      -3.31791353
Au       0.00000000       0.00000000       2.23757576       0.00000000       0.00000000       3.31791353
2
Properties=species:S:1:pos:R:3:forces:R:3 energy=-3.342589823807208 pbc="F F F"
Au       0.00000000       0.00000000       0.00000000       0.00000000       0.00000000      -2.62592888
Au       0.00000000       0.00000000       2.29636364       0.00000000       0.00000000       2.62592888
2
Properties=species:S:1:pos:R:3:forces:R:3 energy=-3.47831056466473 pbc="F F F"
Au       0.00000000       0.00000000       0.00000000       0.00000000       0.00000000      -1.99430895
Au       0.00000000       0.00000000       2.35515152       0.00000000       0.00000000       1.99430895
2
Properties=species:S:1:pos:R:3:forces:R:3 energy=-3.578459686614678 pbc="F F F"
Au       0.00000000       0.00000000       0.00000000       0.00000000       0.00000000      -1.43111384
Au       0.00000000       0.00000000       2.41393939       0.00000000       0.00000000       1.43111384
2
Properties=species:S:1:pos:R:3:forces:R:3 energy=-3.648546020485603 pbc="F F F"
Au       0.00000000       0.00000000       0.00000000       0.00000000       0.00000000      -0.96817297
Au       0.00000000       0.00000000       2.47272727       0.00000000       0.00000000       0.96817297
2
Properties=species:S:1:pos:R:3:forces:R:3 energy=-3.6938852763931487 pbc="F F F"
Au       0.00000000       0.00000000       0.00000000       0.00000000       0.00000000      -0.58637440
Au       0.00000000       0.00000000       2.53151515       0.00000000       0.00000000       0.58637440
2
Properties=species:S:1:pos:R:3:forces:R:3 energy=-3.718848511868842 pbc="F F F"
Au       0.00000000       0.00000000       0.00000000       0.00000000       0.00000000      -0.27451959
Au       0.00000000       0.00000000       2.59030303       0.00000000       0.00000000       0.27451959
2
Properties=species:S:1:pos:R:3:forces:R:3 energy=-3.7274983505106247 pbc="F F F"
Au       0.00000000       0.00000000       0.00000000       0.00000000       0.00000000      -0.03040430
Au       0.00000000       0.00000000       2.64909091       0.00000000       0.00000000       0.03040430
2
Properties=species:S:1:pos:R:3:forces:R:3 energy=-3.7235657093411616 pbc="F F F"
Au       0.00000000       0.00000000       0.00000000       0.00000000       0.00000000       0.15532795
Au       0.00000000       0.00000000       2.70787879       0.00000000       0.00000000      -0.15532795
2
Properties=species:S:1:pos:R:3:forces:R:3 energy=-3.710195634619502 pbc="F F F"
Au       0.00000000       0.00000000       0.00000000       0.00000000       0.00000000       0.29208785
Au       0.00000000       0.00000000       2.76666667       0.00000000       0.00000000      -0.29208785
2
Properties=species:S:1:pos:R:3:forces:R:3 energy=-3.6900173012292727 pbc="F F F"
Au       0.00000000       0.00000000       0.00000000       0.00000000       0.00000000       0.38813767
Au       0.00000000       0.00000000       2.82545455       0.00000000       0.00000000      -0.38813767
2
Properties=species:S:1:pos:R:3:forces:R:3 energy=-3.665274030831758 pbc="F F F"
Au       0.00000000       0.00000000       0.00000000       0.00000000       0.00000000       0.44764721
Au       0.00000000       0.00000000       2.88424242       0.00000000       0.00000000      -0.44764721
2
Properties=species:S:1:pos:R:3:forces:R:3 energy=-3.638054696981282 pbc="F F F"
Au       0.00000000       0.00000000       0.00000000       0.00000000       0.00000000       0.47333053
Au       0.00000000       0.00000000       2.94303030       0.00000000       0.00000000      -0.47333053
2
Properties=species:S:1:pos:R:3:forces:R:3 energy=-3.610088428931632 pbc="F F F"
Au       0.00000000       0.00000000       0.00000000       0.00000000       0.00000000       0.47528768
Au       0.00000000       0.00000000       3.00181818       0.00000000       0.00000000      -0.47528768
2
Properties=species:S:1:pos:R:3:forces:R:3 energy=-3.5823935136371334 pbc="F F F"
Au       0.00000000       0.00000000       0.00000000       0.00000000       0.00000000       0.46561038
Au       0.00000000       0.00000000       3.06060606       0.00000000       0.00000000      -0.46561038
2
Properties=species:S:1:pos:R:3:forces:R:3 energy=-3.555488350766347 pbc="F F F"
Au       0.00000000       0.00000000       0.00000000       0.00000000       0.00000000       0.44849145
Au       0.00000000       0.00000000       3.11939394       0.00000000       0.00000000      -0.44849145
2
Properties=species:S:1:pos:R:3:forces:R:3 energy=-3.529794595650319 pbc="F F F"
Au       0.00000000       0.00000000       0.00000000       0.00000000       0.00000000       0.42470849
Au       0.00000000       0.00000000       3.17818182       0.00000000       0.00000000      -0.42470849
2
Properties=species:S:1:pos:R:3:forces:R:3 energy=-3.5056245218809345 pbc="F F F"
Au       0.00000000       0.00000000       0.00000000       0.00000000       0.00000000       0.39724851
Au       0.00000000       0.00000000       3.23696970       0.00000000       0.00000000      -0.39724851
2
Properties=species:S:1:pos:R:3:forces:R:3 energy=-3.4831003968838963 pbc="F F F"
Au       0.00000000       0.00000000       0.00000000       0.00000000       0.00000000       0.36906096
Au       0.00000000       0.00000000       3.29575758       0.00000000       0.00000000      -0.36906096
2
Properties=species:S:1:pos:R:3:forces:R:3 energy=-3.462222691164212 pbc="F F F"
Au       0.00000000       0.00000000       0.00000000       0.00000000       0.00000000       0.34131119
Au       0.00000000       0.00000000       3.35454545       0.00000000       0.00000000      -0.34131119
2
Properties=species:S:1:pos:R:3:forces:R:3 energy=-3.4429656537896585 pbc="F F F"
Au       0.00000000       0.00000000       0.00000000       0.00000000       0.00000000       0.31381106
Au       0.00000000       0.00000000       3.41333333       0.00000000       0.00000000      -0.31381106
2
Properties=species:S:1:pos:R:3:forces:R:3 energy=-3.425329654788696 pbc="F F F"
Au       0.00000000       0.00000000       0.00000000       0.00000000       0.00000000       0.28614789
Au       0.00000000       0.00000000       3.47212121       0.00000000       0.00000000      -0.28614789
2
Properties=species:S:1:pos:R:3:forces:R:3 energy=-3.4093224621407816 pbc="F F F"
Au       0.00000000       0.00000000       0.00000000       0.00000000       0.00000000       0.25845531
Au       0.00000000       0.00000000       3.53090909       0.00000000       0.00000000      -0.25845531
2
Properties=species:S:1:pos:R:3:forces:R:3 energy=-3.394934322379377 pbc="F F F"
Au       0.00000000       0.00000000       0.00000000       0.00000000       0.00000000       0.23112188
Au       0.00000000       0.00000000       3.58969697       0.00000000       0.00000000      -0.23112188
2
Properties=species:S:1:pos:R:3:forces:R:3 energy=-3.382139171531929 pbc="F F F"
Au       0.00000000       0.00000000       0.00000000       0.00000000       0.00000000       0.20422232
Au       0.00000000       0.00000000       3.64848485       0.00000000       0.00000000      -0.20422232
2
Properties=species:S:1:pos:R:3:forces:R:3 energy=-3.370918719236248 pbc="F F F"
Au       0.00000000       0.00000000       0.00000000       0.00000000       0.00000000       0.17754248
Au       0.00000000       0.00000000       3.70727273       0.00000000       0.00000000      -0.17754248
2
Properties=species:S:1:pos:R:3:forces:R:3 energy=-3.361261977407077 pbc="F F F"
Au       0.00000000       0.00000000       0.00000000       0.00000000       0.00000000       0.15102512
Au       0.00000000       0.00000000       3.76606061       0.00000000       0.00000000      -0.15102512
2
Properties=species:S:1:pos:R:3:forces:R:3 energy=-3.353150769723823 pbc="F F F"
Au       0.00000000       0.00000000       0.00000000       0.00000000       0.00000000       0.12506349
Au       0.00000000       0.00000000       3.82484848       0.00000000       0.00000000      -0.12506349
2
Properties=species:S:1:pos:R:3:forces:R:3 energy=-3.346531893677604 pbc="F F F"
Au       0.00000000       0.00000000       0.00000000       0.00000000       0.00000000       0.10039695
Au       0.00000000       0.00000000       3.88363636       0.00000000       0.00000000      -0.10039695
2
Properties=species:S:1:pos:R:3:forces:R:3 energy=-3.34130605111438 pbc="F F F"
Au       0.00000000       0.00000000       0.00000000       0.00000000       0.00000000       0.07778151
Au       0.00000000       0.00000000       3.94242424       0.00000000       0.00000000      -0.07778151
2
Properties=species:S:1:pos:R:3:forces:R:3 energy=-3.3373369429870055 pbc="F F F"
Au       0.00000000       0.00000000       0.00000000       0.00000000       0.00000000       0.05770954
Au       0.00000000       0.00000000       4.00121212       0.00000000       0.00000000      -0.05770954
2
Properties=species:S:1:pos:R:3:forces:R:3 energy=-3.3344676315381645 pbc="F F F"
Au       0.00000000       0.00000000       0.00000000       0.00000000       0.00000000       0.04034056
Au       0.00000000       0.00000000       4.06000000       0.00000000       0.00000000      -0.04034056
2
Properties=species:S:1:pos:R:3:forces:R:3 energy=-3.332541641512576 pbc="F F F"
Au       0.00000000       0.00000000       0.00000000       0.00000000       0.00000000       0.02559031
Au       0.00000000       0.00000000       4.11878788       0.00000000       0.00000000      -0.02559031
2
Properties=species:S:1:pos:R:3:forces:R:3 energy=-3.3314116232533113 pbc="F F F"
Au       0.00000000       0.00000000       0.00000000       0.00000000       0.00000000       0.01325058
Au       0.00000000       0.00000000       4.17757576       0.00000000       0.00000000      -0.01325058
2
Properties=species:S:1:pos:R:3:forces:R:3 energy=-3.3309420069843862 pbc="F F F"
Au       0.00000000       0.00000000       0.00000000       0.00000000       0.00000000       0.00307049
Au       0.00000000       0.00000000       4.23636364       0.00000000       0.00000000      -0.00307049
2
Properties=species:S:1:pos:R:3:forces:R:3 energy=-3.33101291337461 pbc="F F F"
Au       0.00000000       0.00000000       0.00000000       0.00000000       0.00000000      -0.00519746
Au       0.00000000       0.00000000       4.29515152       0.00000000       0.00000000       0.00519746
2
Properties=species:S:1:pos:R:3:forces:R:3 energy=-3.331519463624424 pbc="F F F"
Au       0.00000000       0.00000000       0.00000000       0.00000000       0.00000000      -0.01176479
Au       0.00000000       0.00000000       4.35393939       0.00000000       0.00000000       0.01176479
2
Properties=species:S:1:pos:R:3:forces:R:3 energy=-3.332365864182851 pbc="F F F"
Au       0.00000000       0.00000000       0.00000000       0.00000000       0.00000000      -0.01678632
Au       0.00000000       0.00000000       4.41272727       0.00000000       0.00000000       0.01678632
2
Properties=species:S:1:pos:R:3:forces:R:3 energy=-3.3334648934803863 pbc="F F F"
Au       0.00000000       0.00000000       0.00000000       0.00000000       0.00000000      -0.02035986
Au       0.00000000       0.00000000       4.47151515       0.00000000       0.00000000       0.02035986
2
Properties=species:S:1:pos:R:3:forces:R:3 energy=-3.334732822278924 pbc="F F F"
Au       0.00000000       0.00000000       0.00000000       0.00000000       0.00000000      -0.02254910
Au       0.00000000       0.00000000       4.53030303       0.00000000       0.00000000       0.02254910
2
Properties=species:S:1:pos:R:3:forces:R:3 energy=-3.336090041812385 pbc="F F F"
Au       0.00000000       0.00000000       0.00000000       0.00000000       0.00000000      -0.02341991
Au       0.00000000       0.00000000       4.58909091       0.00000000       0.00000000       0.02341991
2
Properties=species:S:1:pos:R:3:forces:R:3 energy=-3.337462871348955 pbc="F F F"
Au       0.00000000       0.00000000       0.00000000       0.00000000       0.00000000      -0.02308049
Au       0.00000000       0.00000000       4.64787879       0.00000000       0.00000000       0.02308049
2
Properties=species:S:1:pos:R:3:forces:R:3 energy=-3.3387840207730397 pbc="F F F"
Au       0.00000000       0.00000000       0.00000000       0.00000000       0.00000000      -0.02170669
Au       0.00000000       0.00000000       4.70666667       0.00000000       0.00000000       0.02170669
2
Properties=species:S:1:pos:R:3:forces:R:3 energy=-3.3399999007817547 pbc="F F F"
Au       0.00000000       0.00000000       0.00000000       0.00000000       0.00000000      -0.01954875
Au       0.00000000       0.00000000       4.76545455       0.00000000       0.00000000       0.01954875
2
Properties=species:S:1:pos:R:3:forces:R:3 energy=-3.3410729864798707 pbc="F F F"
Au       0.00000000       0.00000000       0.00000000       0.00000000       0.00000000      -0.01691045
Au       0.00000000       0.00000000       4.82424242       0.00000000       0.00000000       0.01691045
2
Properties=species:S:1:pos:R:3:forces:R:3 energy=-3.341984670483209 pbc="F F F"
Au       0.00000000       0.00000000       0.00000000       0.00000000       0.00000000      -0.01411193
Au       0.00000000       0.00000000       4.88303030       0.00000000       0.00000000       0.01411193
2
Properties=species:S:1:pos:R:3:forces:R:3 energy=-3.342734744899794 pbc="F F F"
Au       0.00000000       0.00000000       0.00000000       0.00000000       0.00000000      -0.01144335
Au       0.00000000       0.00000000       4.94181818       0.00000000       0.00000000       0.01144335
2
Properties=species:S:1:pos:R:3:forces:R:3 energy=-3.343337125634541 pbc="F F F"
Au       0.00000000       0.00000000       0.00000000       0.00000000       0.00000000      -0.00912254
Au       0.00000000       0.00000000       5.00060606       0.00000000       0.00000000       0.00912254
2
Properties=species:S:1:pos:R:3:forces:R:3 energy=-3.3438165588786584 pbc="F F F"
Au       0.00000000       0.00000000       0.00000000       0.00000000       0.00000000      -0.00726752
Au       0.00000000       0.00000000       5.05939394       0.00000000       0.00000000       0.00726752
2
Properties=species:S:1:pos:R:3:forces:R:3 energy=-3.3442009727081836 pbc="F F F"
Au       0.00000000       0.00000000       0.00000000       0.00000000       0.00000000      -0.00588890
Au       0.00000000       0.00000000       5.11818182       0.00000000       0.00000000       0.00588890
2
Properties=species:S:1:pos:R:3:forces:R:3 energy=-3.344516266721287 pbc="F F F"
Au       0.00000000       0.00000000       0.00000000       0.00000000       0.00000000      -0.00490317
Au       0.00000000       0.00000000       5.17696970       0.00000000       0.00000000       0.00490317
2
Properties=species:S:1:pos:R:3:forces:R:3 energy=-3.3447825369387822 pbc="F F F"
Au       0.00000000       0.00000000       0.00000000       0.00000000       0.00000000      -0.00416233
Au       0.00000000       0.00000000       5.23575758       0.00000000       0.00000000       0.00416233
2
Properties=species:S:1:pos:R:3:forces:R:3 energy=-3.345007207598754 pbc="F F F"
Au       0.00000000       0.00000000       0.00000000       0.00000000       0.00000000      -0.00349341
Au       0.00000000       0.00000000       5.29454545       0.00000000       0.00000000       0.00349341
2
Properties=species:S:1:pos:R:3:forces:R:3 energy=-3.345191246670681 pbc="F F F"
Au       0.00000000       0.00000000       0.00000000       0.00000000       0.00000000      -0.00273871
Au       0.00000000       0.00000000       5.35333333       0.00000000       0.00000000       0.00273871
2
Properties=species:S:1:pos:R:3:forces:R:3 energy=-3.345325858881594 pbc="F F F"
Au       0.00000000       0.00000000       0.00000000       0.00000000       0.00000000      -0.00179232
Au       0.00000000       0.00000000       5.41212121       0.00000000       0.00000000       0.00179232
2
Properties=species:S:1:pos:R:3:forces:R:3 energy=-3.3453975526948585 pbc="F F F"
Au       0.00000000       0.00000000       0.00000000       0.00000000       0.00000000      -0.00061719
Au       0.00000000       0.00000000       5.47090909       0.00000000       0.00000000       0.00061719
2
Properties=species:S:1:pos:R:3:forces:R:3 energy=-3.345394582363542 pbc="F F F"
Au       0.00000000       0.00000000       0.00000000       0.00000000       0.00000000       0.00074654
Au       0.00000000       0.00000000       5.52969697       0.00000000       0.00000000      -0.00074654
2
Properties=species:S:1:pos:R:3:forces:R:3 energy=-3.345307935658822 pbc="F F F"
Au       0.00000000       0.00000000       0.00000000       0.00000000       0.00000000       0.00219743
Au       0.00000000       0.00000000       5.58848485       0.00000000       0.00000000      -0.00219743
2
Properties=species:S:1:pos:R:3:forces:R:3 energy=-3.345137112144723 pbc="F F F"
Au       0.00000000       0.00000000       0.00000000       0.00000000       0.00000000       0.00359548
Au       0.00000000       0.00000000       5.64727273       0.00000000       0.00000000      -0.00359548
2
Properties=species:S:1:pos:R:3:forces:R:3 energy=-3.344888675243624 pbc="F F F"
Au       0.00000000       0.00000000       0.00000000       0.00000000       0.00000000       0.00479493
Au       0.00000000       0.00000000       5.70606061       0.00000000       0.00000000      -0.00479493
2
Properties=species:S:1:pos:R:3:forces:R:3 energy=-3.3445796304860966 pbc="F F F"
Au       0.00000000       0.00000000       0.00000000       0.00000000       0.00000000       0.00568115
Au       0.00000000       0.00000000       5.76484848       0.00000000       0.00000000      -0.00568115
2
Properties=species:S:1:pos:R:3:forces:R:3 energy=-3.344228648372987 pbc="F F F"
Au       0.00000000       0.00000000       0.00000000       0.00000000       0.00000000       0.00618733
Au       0.00000000       0.00000000       5.82363636       0.00000000       0.00000000      -0.00618733
2
Properties=species:S:1:pos:R:3:forces:R:3 energy=-3.3438593626377497 pbc="F F F"
Au       0.00000000       0.00000000       0.00000000       0.00000000       0.00000000       0.00631963
Au       0.00000000       0.00000000       5.88242424       0.00000000       0.00000000      -0.00631963
2
Properties=species:S:1:pos:R:3:forces:R:3 energy=-3.3434916037999276 pbc="F F F"
Au       0.00000000       0.00000000       0.00000000       0.00000000       0.00000000       0.00615450
Au       0.00000000       0.00000000       5.94121212       0.00000000       0.00000000      -0.00615450
2
Properties=species:S:1:pos:R:3:forces:R:3 energy=-3.3431390217109858 pbc="F F F"
Au       0.00000000       0.00000000       0.00000000       0.00000000       0.00000000       0.00582827
Au       0.00000000       0.00000000       6.00000000       0.00000000       0.00000000      -0.00582827
