2
Properties=species:S:1:pos:R:3:forces:R:3 energy=-12494.75425700461 pbc="F F F"
B        0.00000000       0.00000000       0.00000000       0.00000000       0.00000000     940.62005615
B        0.00000000       0.00000000       0.18000000       0.00000000       0.00000000    -940.62005615
2
Properties=species:S:1:pos:R:3:forces:R:3 energy=-11284.505233565525 pbc="F F F"
B        0.00000000       0.00000000       0.00000000       0.00000000       0.00000000   37971.85156250
B        0.00000000       0.00000000       0.23878788       0.00000000       0.00000000  -37971.85156250
2
Properties=species:S:1:pos:R:3:forces:R:3 energy=-8454.809921062357 pbc="F F F"
B        0.00000000       0.00000000       0.00000000       0.00000000       0.00000000   54120.45312500
B        0.00000000       0.00000000       0.29757576       0.00000000       0.00000000  -54120.45312500
2
Properties=species:S:1:pos:R:3:forces:R:3 energy=-5883.897323399771 pbc="F F F"
B        0.00000000       0.00000000       0.00000000       0.00000000       0.00000000   49084.86718750
B        0.00000000       0.00000000       0.35636364       0.00000000       0.00000000  -49084.86718750
2
Properties=species:S:1:pos:R:3:forces:R:3 energy=-3096.0030362745574 pbc="F F F"
B        0.00000000       0.00000000       0.00000000       0.00000000       0.00000000   41734.69531250
B        0.00000000       0.00000000       0.41515152       0.00000000       0.00000000  -41734.69531250
2
Properties=species:S:1:pos:R:3:forces:R:3 energy=-1160.4896085069204 pbc="F F F"
B        0.00000000       0.00000000       0.00000000       0.00000000       0.00000000   23911.99804688
B        0.00000000       0.00000000       0.47393939       0.00000000       0.00000000  -23911.99804688
2
Properties=species:S:1:pos:R:3:forces:R:3 energy=-266.1153103494447 pbc="F F F"
B        0.00000000       0.00000000       0.00000000       0.00000000       0.00000000    8194.20410156
B        0.00000000       0.00000000       0.53272727       0.00000000       0.00000000   -8194.20410156
2
Properties=species:S:1:pos:R:3:forces:R:3 energy=-21.6465678727172 pbc="F F F"
B        0.00000000       0.00000000       0.00000000       0.00000000       0.00000000    1449.71557617
B        0.00000000       0.00000000       0.59151515       0.00000000       0.00000000   -1449.71557617
2
Properties=species:S:1:pos:R:3:forces:R:3 energy=13.245892170897784 pbc="F F F"
B        0.00000000       0.00000000       0.00000000       0.00000000       0.00000000     -25.15170288
B        0.00000000       0.00000000       0.65030303       0.00000000       0.00000000      25.15170288
2
Properties=species:S:1:pos:R:3:forces:R:3 energy=19.0807007976916 pbc="F F F"
B        0.00000000       0.00000000       0.00000000       0.00000000       0.00000000     140.04898071
B        0.00000000       0.00000000       0.70909091       0.00000000       0.00000000    -140.04898071
2
Properties=species:S:1:pos:R:3:forces:R:3 energy=29.263299333025614 pbc="F F F"
B        0.00000000       0.00000000       0.00000000       0.00000000       0.00000000      -2.00683784
B        0.00000000       0.00000000       0.76787879       0.00000000       0.00000000       2.00683784
2
Properties=species:S:1:pos:R:3:forces:R:3 energy=24.254163752383672 pbc="F F F"
B        0.00000000       0.00000000       0.00000000       0.00000000       0.00000000    -118.98013306
B        0.00000000       0.00000000       0.82666667       0.00000000       0.00000000     118.98013306
2
Properties=species:S:1:pos:R:3:forces:R:3 energy=17.10441488668232 pbc="F F F"
B        0.00000000       0.00000000       0.00000000       0.00000000       0.00000000    -117.29534912
B        0.00000000       0.00000000       0.88545455       0.00000000       0.00000000     117.29534912
2
Properties=species:S:1:pos:R:3:forces:R:3 energy=10.773655172658058 pbc="F F F"
B        0.00000000       0.00000000       0.00000000       0.00000000       0.00000000     -98.21241760
B        0.00000000       0.00000000       0.94424242       0.00000000       0.00000000      98.21241760
2
Properties=species:S:1:pos:R:3:forces:R:3 energy=5.5454044708094345 pbc="F F F"
B        0.00000000       0.00000000       0.00000000       0.00000000       0.00000000     -77.74439240
B        0.00000000       0.00000000       1.00303030       0.00000000       0.00000000      77.74439240
2
Properties=species:S:1:pos:R:3:forces:R:3 energy=1.63313527893408 pbc="F F F"
B        0.00000000       0.00000000       0.00000000       0.00000000       0.00000000     -54.69533539
B        0.00000000       0.00000000       1.06181818       0.00000000       0.00000000      54.69533539
2
Properties=species:S:1:pos:R:3:forces:R:3 energy=-1.1138738056520685 pbc="F F F"
B        0.00000000       0.00000000       0.00000000       0.00000000       0.00000000     -39.12786484
B        0.00000000       0.00000000       1.12060606       0.00000000       0.00000000      39.12786484
2
Properties=species:S:1:pos:R:3:forces:R:3 energy=-3.0284043893184274 pbc="F F F"
B        0.00000000       0.00000000       0.00000000       0.00000000       0.00000000     -25.70764923
B        0.00000000       0.00000000       1.17939394       0.00000000       0.00000000      25.70764923
2
Properties=species:S:1:pos:R:3:forces:R:3 energy=-4.225000193622767 pbc="F F F"
B        0.00000000       0.00000000       0.00000000       0.00000000       0.00000000     -15.40347290
B        0.00000000       0.00000000       1.23818182       0.00000000       0.00000000      15.40347290
2
Properties=species:S:1:pos:R:3:forces:R:3 energy=-4.984270172026424 pbc="F F F"
B        0.00000000       0.00000000       0.00000000       0.00000000       0.00000000     -10.23216248
B        0.00000000       0.00000000       1.29696970       0.00000000       0.00000000      10.23216248
2
Properties=species:S:1:pos:R:3:forces:R:3 energy=-5.449607749203081 pbc="F F F"
B        0.00000000       0.00000000       0.00000000       0.00000000       0.00000000      -5.88977480
B        0.00000000       0.00000000       1.35575758       0.00000000       0.00000000       5.88977480
2
Properties=species:S:1:pos:R:3:forces:R:3 energy=-5.72588386549226 pbc="F F F"
B        0.00000000       0.00000000       0.00000000       0.00000000       0.00000000      -3.56983638
B        0.00000000       0.00000000       1.41454545       0.00000000       0.00000000       3.56983638
2
Properties=species:S:1:pos:R:3:forces:R:3 energy=-5.870940488684879 pbc="F F F"
B        0.00000000       0.00000000       0.00000000       0.00000000       0.00000000      -1.51375830
B        0.00000000       0.00000000       1.47333333       0.00000000       0.00000000       1.51375830
2
Properties=species:S:1:pos:R:3:forces:R:3 energy=-5.904697717324382 pbc="F F F"
B        0.00000000       0.00000000       0.00000000       0.00000000       0.00000000       0.27417088
B        0.00000000       0.00000000       1.53212121       0.00000000       0.00000000      -0.27417088
2
Properties=species:S:1:pos:R:3:forces:R:3 energy=-5.8581752210808595 pbc="F F F"
B        0.00000000       0.00000000       0.00000000       0.00000000       0.00000000       1.26523519
B        0.00000000       0.00000000       1.59090909       0.00000000       0.00000000      -1.26523519
2
Properties=species:S:1:pos:R:3:forces:R:3 energy=-5.758379428639467 pbc="F F F"
B        0.00000000       0.00000000       0.00000000       0.00000000       0.00000000       2.14374638
B        0.00000000       0.00000000       1.64969697       0.00000000       0.00000000      -2.14374638
2
Properties=species:S:1:pos:R:3:forces:R:3 energy=-5.608596042613093 pbc="F F F"
B        0.00000000       0.00000000       0.00000000       0.00000000       0.00000000       2.94780755
B        0.00000000       0.00000000       1.70848485       0.00000000       0.00000000      -2.94780755
2
Properties=species:S:1:pos:R:3:forces:R:3 energy=-5.426878387526568 pbc="F F F"
B        0.00000000       0.00000000       0.00000000       0.00000000       0.00000000       3.07445502
B        0.00000000       0.00000000       1.76727273       0.00000000       0.00000000      -3.07445502
2
Properties=species:S:1:pos:R:3:forces:R:3 energy=-5.238652289539297 pbc="F F F"
B        0.00000000       0.00000000       0.00000000       0.00000000       0.00000000       3.48855948
B        0.00000000       0.00000000       1.82606061       0.00000000       0.00000000      -3.48855948
2
Properties=species:S:1:pos:R:3:forces:R:3 energy=-5.0167194214217306 pbc="F F F"
B        0.00000000       0.00000000       0.00000000       0.00000000       0.00000000       3.98358274
B        0.00000000       0.00000000       1.88484848       0.00000000       0.00000000      -3.98358274
2
Properties=species:S:1:pos:R:3:forces:R:3 energy=-4.7817205271976615 pbc="F F F"
B        0.00000000       0.00000000       0.00000000       0.00000000       0.00000000       3.95877409
B        0.00000000       0.00000000       1.94363636       0.00000000       0.00000000      -3.95877409
2
Properties=species:S:1:pos:R:3:forces:R:3 energy=-4.5562136684849435 pbc="F F F"
B        0.00000000       0.00000000       0.00000000       0.00000000       0.00000000       3.66977239
B        0.00000000       0.00000000       2.00242424       0.00000000       0.00000000      -3.66977239
2
Properties=species:S:1:pos:R:3:forces:R:3 energy=-4.3476895217685145 pbc="F F F"
B        0.00000000       0.00000000       0.00000000       0.00000000       0.00000000       3.50054288
B        0.00000000       0.00000000       2.06121212       0.00000000       0.00000000      -3.50054288
2
Properties=species:S:1:pos:R:3:forces:R:3 energy=-4.139799867323577 pbc="F F F"
B        0.00000000       0.00000000       0.00000000       0.00000000       0.00000000       3.59373379
B        0.00000000       0.00000000       2.12000000       0.00000000       0.00000000      -3.59373379
2
Properties=species:S:1:pos:R:3:forces:R:3 energy=-3.923935444592794 pbc="F F F"
B        0.00000000       0.00000000       0.00000000       0.00000000       0.00000000       3.72620511
B        0.00000000       0.00000000       2.17878788       0.00000000       0.00000000      -3.72620511
2
Properties=species:S:1:pos:R:3:forces:R:3 energy=-3.7056596503045562 pbc="F F F"
B        0.00000000       0.00000000       0.00000000       0.00000000       0.00000000       3.68234110
B        0.00000000       0.00000000       2.23757576       0.00000000       0.00000000      -3.68234110
2
Properties=species:S:1:pos:R:3:forces:R:3 energy=-3.4920633113952078 pbc="F F F"
B        0.00000000       0.00000000       0.00000000       0.00000000       0.00000000       3.56964970
B        0.00000000       0.00000000       2.29636364       0.00000000       0.00000000      -3.56964970
2
Properties=species:S:1:pos:R:3:forces:R:3 energy=-3.288049938041861 pbc="F F F"
B        0.00000000       0.00000000       0.00000000       0.00000000       0.00000000       3.36304951
B        0.00000000       0.00000000       2.35515152       0.00000000       0.00000000      -3.36304951
2
Properties=species:S:1:pos:R:3:forces:R:3 energy=-3.0956117033312847 pbc="F F F"
B        0.00000000       0.00000000       0.00000000       0.00000000       0.00000000       3.19778299
B        0.00000000       0.00000000       2.41393939       0.00000000       0.00000000      -3.19778299
2
Properties=species:S:1:pos:R:3:forces:R:3 energy=-2.911664325943684 pbc="F F F"
B        0.00000000       0.00000000       0.00000000       0.00000000       0.00000000       3.05306315
B        0.00000000       0.00000000       2.47272727       0.00000000       0.00000000      -3.05306315
2
Properties=species:S:1:pos:R:3:forces:R:3 energy=-2.7378388646913154 pbc="F F F"
B        0.00000000       0.00000000       0.00000000       0.00000000       0.00000000       2.85129762
B        0.00000000       0.00000000       2.53151515       0.00000000       0.00000000      -2.85129762
2
Properties=species:S:1:pos:R:3:forces:R:3 energy=-2.577349976858095 pbc="F F F"
B        0.00000000       0.00000000       0.00000000       0.00000000       0.00000000       2.60181165
B        0.00000000       0.00000000       2.59030303       0.00000000       0.00000000      -2.60181165
2
Properties=species:S:1:pos:R:3:forces:R:3 energy=-2.4325368348334386 pbc="F F F"
B        0.00000000       0.00000000       0.00000000       0.00000000       0.00000000       2.32228231
B        0.00000000       0.00000000       2.64909091       0.00000000       0.00000000      -2.32228231
2
Properties=species:S:1:pos:R:3:forces:R:3 energy=-2.3041685086055774 pbc="F F F"
B        0.00000000       0.00000000       0.00000000       0.00000000       0.00000000       2.04928803
B        0.00000000       0.00000000       2.70787879       0.00000000       0.00000000      -2.04928803
2
Properties=species:S:1:pos:R:3:forces:R:3 energy=-2.190935790239592 pbc="F F F"
B        0.00000000       0.00000000       0.00000000       0.00000000       0.00000000       1.80849171
B        0.00000000       0.00000000       2.76666667       0.00000000       0.00000000      -1.80849171
2
Properties=species:S:1:pos:R:3:forces:R:3 energy=-2.0909721173507254 pbc="F F F"
B        0.00000000       0.00000000       0.00000000       0.00000000       0.00000000       1.59602273
B        0.00000000       0.00000000       2.82545455       0.00000000       0.00000000      -1.59602273
2
Properties=species:S:1:pos:R:3:forces:R:3 energy=-2.0029592047549554 pbc="F F F"
B        0.00000000       0.00000000       0.00000000       0.00000000       0.00000000       1.40047693
B        0.00000000       0.00000000       2.88424242       0.00000000       0.00000000      -1.40047693
2
Properties=species:S:1:pos:R:3:forces:R:3 energy=-1.9260453230852446 pbc="F F F"
B        0.00000000       0.00000000       0.00000000       0.00000000       0.00000000       1.21874785
B        0.00000000       0.00000000       2.94303030       0.00000000       0.00000000      -1.21874785
2
Properties=species:S:1:pos:R:3:forces:R:3 energy=-1.859267521043439 pbc="F F F"
B        0.00000000       0.00000000       0.00000000       0.00000000       0.00000000       1.05723667
B        0.00000000       0.00000000       3.00181818       0.00000000       0.00000000      -1.05723667
2
Properties=species:S:1:pos:R:3:forces:R:3 energy=-1.8012303797076354 pbc="F F F"
B        0.00000000       0.00000000       0.00000000       0.00000000       0.00000000       0.92131728
B        0.00000000       0.00000000       3.06060606       0.00000000       0.00000000      -0.92131728
2
Properties=species:S:1:pos:R:3:forces:R:3 energy=-1.750515230680762 pbc="F F F"
B        0.00000000       0.00000000       0.00000000       0.00000000       0.00000000       0.80701637
B        0.00000000       0.00000000       3.11939394       0.00000000       0.00000000      -0.80701637
2
Properties=species:S:1:pos:R:3:forces:R:3 energy=-1.706058831318457 pbc="F F F"
B        0.00000000       0.00000000       0.00000000       0.00000000       0.00000000       0.70755297
B        0.00000000       0.00000000       3.17818182       0.00000000       0.00000000      -0.70755297
2
Properties=species:S:1:pos:R:3:forces:R:3 energy=-1.6670980864647607 pbc="F F F"
B        0.00000000       0.00000000       0.00000000       0.00000000       0.00000000       0.61972350
B        0.00000000       0.00000000       3.23696970       0.00000000       0.00000000      -0.61972350
2
Properties=species:S:1:pos:R:3:forces:R:3 energy=-1.6330069638083649 pbc="F F F"
B        0.00000000       0.00000000       0.00000000       0.00000000       0.00000000       0.54149032
B        0.00000000       0.00000000       3.29575758       0.00000000       0.00000000      -0.54149032
2
Properties=species:S:1:pos:R:3:forces:R:3 energy=-1.6032888629041724 pbc="F F F"
B        0.00000000       0.00000000       0.00000000       0.00000000       0.00000000       0.47061446
B        0.00000000       0.00000000       3.35454545       0.00000000       0.00000000      -0.47061446
2
Properties=species:S:1:pos:R:3:forces:R:3 energy=-1.5775545491993985 pbc="F F F"
B        0.00000000       0.00000000       0.00000000       0.00000000       0.00000000       0.40583795
B        0.00000000       0.00000000       3.41333333       0.00000000       0.00000000      -0.40583795
2
Properties=species:S:1:pos:R:3:forces:R:3 energy=-1.555444923836965 pbc="F F F"
B        0.00000000       0.00000000       0.00000000       0.00000000       0.00000000       0.34751090
B        0.00000000       0.00000000       3.47212121       0.00000000       0.00000000      -0.34751090
2
Properties=species:S:1:pos:R:3:forces:R:3 energy=-1.5365516342683998 pbc="F F F"
B        0.00000000       0.00000000       0.00000000       0.00000000       0.00000000       0.29670385
B        0.00000000       0.00000000       3.53090909       0.00000000       0.00000000      -0.29670385
2
Properties=species:S:1:pos:R:3:forces:R:3 energy=-1.5204093751672172 pbc="F F F"
B        0.00000000       0.00000000       0.00000000       0.00000000       0.00000000       0.25361055
B        0.00000000       0.00000000       3.58969697       0.00000000       0.00000000      -0.25361055
2
Properties=species:S:1:pos:R:3:forces:R:3 energy=-1.5066034762286329 pbc="F F F"
B        0.00000000       0.00000000       0.00000000       0.00000000       0.00000000       0.21690254
B        0.00000000       0.00000000       3.64848485       0.00000000       0.00000000      -0.21690254
2
Properties=species:S:1:pos:R:3:forces:R:3 energy=-1.4948222148727905 pbc="F F F"
B        0.00000000       0.00000000       0.00000000       0.00000000       0.00000000       0.18449156
B        0.00000000       0.00000000       3.70727273       0.00000000       0.00000000      -0.18449156
2
Properties=species:S:1:pos:R:3:forces:R:3 energy=-1.484861411970038 pbc="F F F"
B        0.00000000       0.00000000       0.00000000       0.00000000       0.00000000       0.15473072
B        0.00000000       0.00000000       3.76606061       0.00000000       0.00000000      -0.15473072
2
Properties=species:S:1:pos:R:3:forces:R:3 energy=-1.4765890429369992 pbc="F F F"
B        0.00000000       0.00000000       0.00000000       0.00000000       0.00000000       0.12708019
B        0.00000000       0.00000000       3.82484848       0.00000000       0.00000000      -0.12708019
2
Properties=species:S:1:pos:R:3:forces:R:3 energy=-1.4698687980714442 pbc="F F F"
B        0.00000000       0.00000000       0.00000000       0.00000000       0.00000000       0.10198599
B        0.00000000       0.00000000       3.88363636       0.00000000       0.00000000      -0.10198599
2
Properties=species:S:1:pos:R:3:forces:R:3 energy=-1.464528563782514 pbc="F F F"
B        0.00000000       0.00000000       0.00000000       0.00000000       0.00000000       0.08029364
B        0.00000000       0.00000000       3.94242424       0.00000000       0.00000000      -0.08029364
2
Properties=species:S:1:pos:R:3:forces:R:3 energy=-1.4603507892289824 pbc="F F F"
B        0.00000000       0.00000000       0.00000000       0.00000000       0.00000000       0.06265341
B        0.00000000       0.00000000       4.00121212       0.00000000       0.00000000      -0.06265341
2
Properties=species:S:1:pos:R:3:forces:R:3 energy=-1.4570801125459647 pbc="F F F"
B        0.00000000       0.00000000       0.00000000       0.00000000       0.00000000       0.04922943
B        0.00000000       0.00000000       4.06000000       0.00000000       0.00000000      -0.04922943
2
Properties=species:S:1:pos:R:3:forces:R:3 energy=-1.454484377786189 pbc="F F F"
B        0.00000000       0.00000000       0.00000000       0.00000000       0.00000000       0.03972996
B        0.00000000       0.00000000       4.11878788       0.00000000       0.00000000      -0.03972996
2
Properties=species:S:1:pos:R:3:forces:R:3 energy=-1.4523460843213283 pbc="F F F"
B        0.00000000       0.00000000       0.00000000       0.00000000       0.00000000       0.03359272
B        0.00000000       0.00000000       4.17757576       0.00000000       0.00000000      -0.03359272
2
Properties=species:S:1:pos:R:3:forces:R:3 energy=-1.45048052249312 pbc="F F F"
B        0.00000000       0.00000000       0.00000000       0.00000000       0.00000000       0.03015598
B        0.00000000       0.00000000       4.23636364       0.00000000       0.00000000      -0.03015598
2
Properties=species:S:1:pos:R:3:forces:R:3 energy=-1.448757757223889 pbc="F F F"
B        0.00000000       0.00000000       0.00000000       0.00000000       0.00000000       0.02873820
B        0.00000000       0.00000000       4.29515152       0.00000000       0.00000000      -0.02873820
2
Properties=species:S:1:pos:R:3:forces:R:3 energy=-1.4470750855029673 pbc="F F F"
B        0.00000000       0.00000000       0.00000000       0.00000000       0.00000000       0.02865909
B        0.00000000       0.00000000       4.35393939       0.00000000       0.00000000      -0.02865909
2
Properties=species:S:1:pos:R:3:forces:R:3 energy=-1.4453751261043966 pbc="F F F"
B        0.00000000       0.00000000       0.00000000       0.00000000       0.00000000       0.02926439
B        0.00000000       0.00000000       4.41272727       0.00000000       0.00000000      -0.02926439
2
Properties=species:S:1:pos:R:3:forces:R:3 energy=-1.4436354511305998 pbc="F F F"
B        0.00000000       0.00000000       0.00000000       0.00000000       0.00000000       0.03000045
B        0.00000000       0.00000000       4.47151515       0.00000000       0.00000000      -0.03000045
2
Properties=species:S:1:pos:R:3:forces:R:3 energy=-1.4418552979283952 pbc="F F F"
B        0.00000000       0.00000000       0.00000000       0.00000000       0.00000000       0.03049903
B        0.00000000       0.00000000       4.53030303       0.00000000       0.00000000      -0.03049903
2
Properties=species:S:1:pos:R:3:forces:R:3 energy=-1.4400575025721607 pbc="F F F"
B        0.00000000       0.00000000       0.00000000       0.00000000       0.00000000       0.03062308
B        0.00000000       0.00000000       4.58909091       0.00000000       0.00000000      -0.03062308
2
Properties=species:S:1:pos:R:3:forces:R:3 energy=-1.4382571022632584 pbc="F F F"
B        0.00000000       0.00000000       0.00000000       0.00000000       0.00000000       0.03044226
B        0.00000000       0.00000000       4.64787879       0.00000000       0.00000000      -0.03044226
2
Properties=species:S:1:pos:R:3:forces:R:3 energy=-1.436477596102701 pbc="F F F"
B        0.00000000       0.00000000       0.00000000       0.00000000       0.00000000       0.03014279
B        0.00000000       0.00000000       4.70666667       0.00000000       0.00000000      -0.03014279
2
Properties=species:S:1:pos:R:3:forces:R:3 energy=-1.434713776343433 pbc="F F F"
B        0.00000000       0.00000000       0.00000000       0.00000000       0.00000000       0.02992223
B        0.00000000       0.00000000       4.76545455       0.00000000       0.00000000      -0.02992223
2
Properties=species:S:1:pos:R:3:forces:R:3 energy=-1.4329537171485631 pbc="F F F"
B        0.00000000       0.00000000       0.00000000       0.00000000       0.00000000       0.02990925
B        0.00000000       0.00000000       4.82424242       0.00000000       0.00000000      -0.02990925
2
Properties=species:S:1:pos:R:3:forces:R:3 energy=-1.4311911901764771 pbc="F F F"
B        0.00000000       0.00000000       0.00000000       0.00000000       0.00000000       0.03013635
B        0.00000000       0.00000000       4.88303030       0.00000000       0.00000000      -0.03013635
2
Properties=species:S:1:pos:R:3:forces:R:3 energy=-1.429409466372658 pbc="F F F"
B        0.00000000       0.00000000       0.00000000       0.00000000       0.00000000       0.03055405
B        0.00000000       0.00000000       4.94181818       0.00000000       0.00000000      -0.03055405
2
Properties=species:S:1:pos:R:3:forces:R:3 energy=-1.4275975624871533 pbc="F F F"
B        0.00000000       0.00000000       0.00000000       0.00000000       0.00000000       0.03106439
B        0.00000000       0.00000000       5.00060606       0.00000000       0.00000000      -0.03106439
2
Properties=species:S:1:pos:R:3:forces:R:3 energy=-1.4257578874961507 pbc="F F F"
B        0.00000000       0.00000000       0.00000000       0.00000000       0.00000000       0.03154846
B        0.00000000       0.00000000       5.05939394       0.00000000       0.00000000      -0.03154846
2
Properties=species:S:1:pos:R:3:forces:R:3 energy=-1.4238900241989318 pbc="F F F"
B        0.00000000       0.00000000       0.00000000       0.00000000       0.00000000       0.03187487
B        0.00000000       0.00000000       5.11818182       0.00000000       0.00000000      -0.03187487
2
Properties=species:S:1:pos:R:3:forces:R:3 energy=-1.4220126862978835 pbc="F F F"
B        0.00000000       0.00000000       0.00000000       0.00000000       0.00000000       0.03189963
B        0.00000000       0.00000000       5.17696970       0.00000000       0.00000000      -0.03189963
2
Properties=species:S:1:pos:R:3:forces:R:3 energy=-1.4201475023713173 pbc="F F F"
B        0.00000000       0.00000000       0.00000000       0.00000000       0.00000000       0.03146831
B        0.00000000       0.00000000       5.23575758       0.00000000       0.00000000      -0.03146831
2
Properties=species:S:1:pos:R:3:forces:R:3 energy=-1.418325702681064 pbc="F F F"
B        0.00000000       0.00000000       0.00000000       0.00000000       0.00000000       0.03043199
B        0.00000000       0.00000000       5.29454545       0.00000000       0.00000000      -0.03043199
2
Properties=species:S:1:pos:R:3:forces:R:3 energy=-1.4165843062571062 pbc="F F F"
B        0.00000000       0.00000000       0.00000000       0.00000000       0.00000000       0.02868065
B        0.00000000       0.00000000       5.35333333       0.00000000       0.00000000      -0.02868065
2
Properties=species:S:1:pos:R:3:forces:R:3 energy=-1.4149699245074667 pbc="F F F"
B        0.00000000       0.00000000       0.00000000       0.00000000       0.00000000       0.02618065
B        0.00000000       0.00000000       5.41212121       0.00000000       0.00000000      -0.02618065
2
Properties=species:S:1:pos:R:3:forces:R:3 energy=-1.4135216107216366 pbc="F F F"
B        0.00000000       0.00000000       0.00000000       0.00000000       0.00000000       0.02300555
B        0.00000000       0.00000000       5.47090909       0.00000000       0.00000000      -0.02300555
2
Properties=species:S:1:pos:R:3:forces:R:3 energy=-1.4122727555398724 pbc="F F F"
B        0.00000000       0.00000000       0.00000000       0.00000000       0.00000000       0.01933526
B        0.00000000       0.00000000       5.52969697       0.00000000       0.00000000      -0.01933526
2
Properties=species:S:1:pos:R:3:forces:R:3 energy=-1.4112501305070375 pbc="F F F"
B        0.00000000       0.00000000       0.00000000       0.00000000       0.00000000       0.01544174
B        0.00000000       0.00000000       5.58848485       0.00000000       0.00000000      -0.01544174
2
Properties=species:S:1:pos:R:3:forces:R:3 energy=-1.4104576853106774 pbc="F F F"
B        0.00000000       0.00000000       0.00000000       0.00000000       0.00000000       0.01164306
B        0.00000000       0.00000000       5.64727273       0.00000000       0.00000000      -0.01164306
2
Properties=species:S:1:pos:R:3:forces:R:3 energy=-1.4098746228113772 pbc="F F F"
B        0.00000000       0.00000000       0.00000000       0.00000000       0.00000000       0.00824715
B        0.00000000       0.00000000       5.70606061       0.00000000       0.00000000      -0.00824715
2
Properties=species:S:1:pos:R:3:forces:R:3 energy=-1.409473523210527 pbc="F F F"
B        0.00000000       0.00000000       0.00000000       0.00000000       0.00000000       0.00549715
B        0.00000000       0.00000000       5.76484848       0.00000000       0.00000000      -0.00549715
2
Properties=species:S:1:pos:R:3:forces:R:3 energy=-1.4092117645452769 pbc="F F F"
B        0.00000000       0.00000000       0.00000000       0.00000000       0.00000000       0.00353292
B        0.00000000       0.00000000       5.82363636       0.00000000       0.00000000      -0.00353292
2
Properties=species:S:1:pos:R:3:forces:R:3 energy=-1.4090439030316249 pbc="F F F"
B        0.00000000       0.00000000       0.00000000       0.00000000       0.00000000       0.00235112
B        0.00000000       0.00000000       5.88242424       0.00000000       0.00000000      -0.00235112
2
Properties=species:S:1:pos:R:3:forces:R:3 energy=-1.4089254970671636 pbc="F F F"
B        0.00000000       0.00000000       0.00000000       0.00000000       0.00000000       0.00180602
B        0.00000000       0.00000000       5.94121212       0.00000000       0.00000000      -0.00180602
2
Properties=species:S:1:pos:R:3:forces:R:3 energy=-1.4088245433043252 pbc="F F F"
B        0.00000000       0.00000000       0.00000000       0.00000000       0.00000000       0.00162845
B        0.00000000       0.00000000       6.00000000       0.00000000       0.00000000      -0.00162845
