2
Properties=species:S:1:pos:R:3:forces:R:3 energy=-52598428.09694785 pbc="F F F"
Ba       0.00000000       0.00000000       0.00000000       0.00000000       0.00000000 564876224.00000000
Ba       0.00000000       0.00000000       0.18000000       0.00000000       0.00000000 -564876224.00000000
2
Properties=species:S:1:pos:R:3:forces:R:3 energy=-24644816.096947853 pbc="F F F"
Ba       0.00000000       0.00000000       0.00000000       0.00000000       0.00000000 375093312.00000000
Ba       0.00000000       0.00000000       0.23878788       0.00000000       0.00000000 -375093312.00000000
2
Properties=species:S:1:pos:R:3:forces:R:3 energy=-8575668.096947853 pbc="F F F"
Ba       0.00000000       0.00000000       0.00000000       0.00000000       0.00000000 179578416.00000000
Ba       0.00000000       0.00000000       0.29757576       0.00000000       0.00000000 -179578416.00000000
2
Properties=species:S:1:pos:R:3:forces:R:3 energy=-2055036.9719478516 pbc="F F F"
Ba       0.00000000       0.00000000       0.00000000       0.00000000       0.00000000 55930592.00000000
Ba       0.00000000       0.00000000       0.35636364       0.00000000       0.00000000 -55930592.00000000
2
Properties=species:S:1:pos:R:3:forces:R:3 energy=-352031.1281978516 pbc="F F F"
Ba       0.00000000       0.00000000       0.00000000       0.00000000       0.00000000 11975333.00000000
Ba       0.00000000       0.00000000       0.41515152       0.00000000       0.00000000 -11975333.00000000
2
Properties=species:S:1:pos:R:3:forces:R:3 energy=-43941.77663535162 pbc="F F F"
Ba       0.00000000       0.00000000       0.00000000       0.00000000       0.00000000 1414022.87500000
Ba       0.00000000       0.00000000       0.47393939       0.00000000       0.00000000 -1414022.87500000
2
Properties=species:S:1:pos:R:3:forces:R:3 energy=-6744.474877526447 pbc="F F F"
Ba       0.00000000       0.00000000       0.00000000       0.00000000       0.00000000  231710.43750000
Ba       0.00000000       0.00000000       0.53272727       0.00000000       0.00000000 -231710.43750000
2
Properties=species:S:1:pos:R:3:forces:R:3 energy=-127.72240558994719 pbc="F F F"
Ba       0.00000000       0.00000000       0.00000000       0.00000000       0.00000000   26951.20312500
Ba       0.00000000       0.00000000       0.59151515       0.00000000       0.00000000  -26951.20312500
2
Properties=species:S:1:pos:R:3:forces:R:3 energy=31.99227795543894 pbc="F F F"
Ba       0.00000000       0.00000000       0.00000000       0.00000000       0.00000000      -7.08970070
Ba       0.00000000       0.00000000       0.65030303       0.00000000       0.00000000       7.08970070
2
Properties=species:S:1:pos:R:3:forces:R:3 energy=343.75775802228543 pbc="F F F"
Ba       0.00000000       0.00000000       0.00000000       0.00000000       0.00000000     529.12988281
Ba       0.00000000       0.00000000       0.70909091       0.00000000       0.00000000    -529.12988281
2
Properties=species:S:1:pos:R:3:forces:R:3 energy=281.4873723307831 pbc="F F F"
Ba       0.00000000       0.00000000       0.00000000       0.00000000       0.00000000   -1227.97741699
Ba       0.00000000       0.00000000       0.76787879       0.00000000       0.00000000    1227.97741699
2
Properties=species:S:1:pos:R:3:forces:R:3 energy=244.16779231601453 pbc="F F F"
Ba       0.00000000       0.00000000       0.00000000       0.00000000       0.00000000    -191.09036255
Ba       0.00000000       0.00000000       0.82666667       0.00000000       0.00000000     191.09036255
2
Properties=species:S:1:pos:R:3:forces:R:3 energy=221.02500066933794 pbc="F F F"
Ba       0.00000000       0.00000000       0.00000000       0.00000000       0.00000000    -477.28671265
Ba       0.00000000       0.00000000       0.88545455       0.00000000       0.00000000     477.28671265
2
Properties=species:S:1:pos:R:3:forces:R:3 energy=183.15572284194928 pbc="F F F"
Ba       0.00000000       0.00000000       0.00000000       0.00000000       0.00000000    -741.75689697
Ba       0.00000000       0.00000000       0.94424242       0.00000000       0.00000000     741.75689697
2
Properties=species:S:1:pos:R:3:forces:R:3 energy=139.63710729669106 pbc="F F F"
Ba       0.00000000       0.00000000       0.00000000       0.00000000       0.00000000    -679.49218750
Ba       0.00000000       0.00000000       1.00303030       0.00000000       0.00000000     679.49218750
2
Properties=species:S:1:pos:R:3:forces:R:3 energy=105.08677642172289 pbc="F F F"
Ba       0.00000000       0.00000000       0.00000000       0.00000000       0.00000000    -528.11053467
Ba       0.00000000       0.00000000       1.06181818       0.00000000       0.00000000     528.11053467
2
Properties=species:S:1:pos:R:3:forces:R:3 energy=83.27580263008265 pbc="F F F"
Ba       0.00000000       0.00000000       0.00000000       0.00000000       0.00000000    -183.61416626
Ba       0.00000000       0.00000000       1.12060606       0.00000000       0.00000000     183.61416626
2
Properties=species:S:1:pos:R:3:forces:R:3 energy=74.20661206923127 pbc="F F F"
Ba       0.00000000       0.00000000       0.00000000       0.00000000       0.00000000     -48.44115829
Ba       0.00000000       0.00000000       1.17939394       0.00000000       0.00000000      48.44115829
2
Properties=species:S:1:pos:R:3:forces:R:3 energy=76.99913885921386 pbc="F F F"
Ba       0.00000000       0.00000000       0.00000000       0.00000000       0.00000000      19.55156708
Ba       0.00000000       0.00000000       1.23818182       0.00000000       0.00000000     -19.55156708
2
Properties=species:S:1:pos:R:3:forces:R:3 energy=74.36278701707224 pbc="F F F"
Ba       0.00000000       0.00000000       0.00000000       0.00000000       0.00000000    -111.93038940
Ba       0.00000000       0.00000000       1.29696970       0.00000000       0.00000000     111.93038940
2
Properties=species:S:1:pos:R:3:forces:R:3 energy=66.62943523025834 pbc="F F F"
Ba       0.00000000       0.00000000       0.00000000       0.00000000       0.00000000    -140.68919373
Ba       0.00000000       0.00000000       1.35575758       0.00000000       0.00000000     140.68919373
2
Properties=species:S:1:pos:R:3:forces:R:3 energy=58.54272063441825 pbc="F F F"
Ba       0.00000000       0.00000000       0.00000000       0.00000000       0.00000000    -133.24276733
Ba       0.00000000       0.00000000       1.41454545       0.00000000       0.00000000     133.24276733
2
Properties=species:S:1:pos:R:3:forces:R:3 energy=51.098462359362735 pbc="F F F"
Ba       0.00000000       0.00000000       0.00000000       0.00000000       0.00000000    -117.89163971
Ba       0.00000000       0.00000000       1.47333333       0.00000000       0.00000000     117.89163971
2
Properties=species:S:1:pos:R:3:forces:R:3 energy=44.70681670577693 pbc="F F F"
Ba       0.00000000       0.00000000       0.00000000       0.00000000       0.00000000     -98.96196747
Ba       0.00000000       0.00000000       1.53212121       0.00000000       0.00000000      98.96196747
2
Properties=species:S:1:pos:R:3:forces:R:3 energy=39.319581222368846 pbc="F F F"
Ba       0.00000000       0.00000000       0.00000000       0.00000000       0.00000000     -88.38319397
Ba       0.00000000       0.00000000       1.59090909       0.00000000       0.00000000      88.38319397
2
Properties=species:S:1:pos:R:3:forces:R:3 energy=34.10749418003848 pbc="F F F"
Ba       0.00000000       0.00000000       0.00000000       0.00000000       0.00000000     -88.09815216
Ba       0.00000000       0.00000000       1.64969697       0.00000000       0.00000000      88.09815216
2
Properties=species:S:1:pos:R:3:forces:R:3 energy=29.0412873963787 pbc="F F F"
Ba       0.00000000       0.00000000       0.00000000       0.00000000       0.00000000     -82.89302063
Ba       0.00000000       0.00000000       1.70848485       0.00000000       0.00000000      82.89302063
2
Properties=species:S:1:pos:R:3:forces:R:3 energy=24.675747648553077 pbc="F F F"
Ba       0.00000000       0.00000000       0.00000000       0.00000000       0.00000000     -64.77187347
Ba       0.00000000       0.00000000       1.76727273       0.00000000       0.00000000      64.77187347
2
Properties=species:S:1:pos:R:3:forces:R:3 energy=21.471585544437684 pbc="F F F"
Ba       0.00000000       0.00000000       0.00000000       0.00000000       0.00000000     -43.16667557
Ba       0.00000000       0.00000000       1.82606061       0.00000000       0.00000000      43.16667557
2
Properties=species:S:1:pos:R:3:forces:R:3 energy=19.30079330928017 pbc="F F F"
Ba       0.00000000       0.00000000       0.00000000       0.00000000       0.00000000     -32.26417923
Ba       0.00000000       0.00000000       1.88484848       0.00000000       0.00000000      32.26417923
2
Properties=species:S:1:pos:R:3:forces:R:3 energy=17.532456375347426 pbc="F F F"
Ba       0.00000000       0.00000000       0.00000000       0.00000000       0.00000000     -29.07567215
Ba       0.00000000       0.00000000       1.94363636       0.00000000       0.00000000      29.07567215
2
Properties=species:S:1:pos:R:3:forces:R:3 energy=15.814731995438958 pbc="F F F"
Ba       0.00000000       0.00000000       0.00000000       0.00000000       0.00000000     -29.49924850
Ba       0.00000000       0.00000000       2.00242424       0.00000000       0.00000000      29.49924850
2
Properties=species:S:1:pos:R:3:forces:R:3 energy=14.049136275967948 pbc="F F F"
Ba       0.00000000       0.00000000       0.00000000       0.00000000       0.00000000     -30.65655136
Ba       0.00000000       0.00000000       2.06121212       0.00000000       0.00000000      30.65655136
2
Properties=species:S:1:pos:R:3:forces:R:3 energy=12.23615194720089 pbc="F F F"
Ba       0.00000000       0.00000000       0.00000000       0.00000000       0.00000000     -30.58250809
Ba       0.00000000       0.00000000       2.12000000       0.00000000       0.00000000      30.58250809
2
Properties=species:S:1:pos:R:3:forces:R:3 energy=10.4830408632576 pbc="F F F"
Ba       0.00000000       0.00000000       0.00000000       0.00000000       0.00000000     -29.05124474
Ba       0.00000000       0.00000000       2.17878788       0.00000000       0.00000000      29.05124474
2
Properties=species:S:1:pos:R:3:forces:R:3 energy=8.832792926035438 pbc="F F F"
Ba       0.00000000       0.00000000       0.00000000       0.00000000       0.00000000     -26.84085274
Ba       0.00000000       0.00000000       2.23757576       0.00000000       0.00000000      26.84085274
2
Properties=species:S:1:pos:R:3:forces:R:3 energy=7.349043274067986 pbc="F F F"
Ba       0.00000000       0.00000000       0.00000000       0.00000000       0.00000000     -23.53987312
Ba       0.00000000       0.00000000       2.29636364       0.00000000       0.00000000      23.53987312
2
Properties=species:S:1:pos:R:3:forces:R:3 energy=6.067682727333361 pbc="F F F"
Ba       0.00000000       0.00000000       0.00000000       0.00000000       0.00000000     -20.10335159
Ba       0.00000000       0.00000000       2.35515152       0.00000000       0.00000000      20.10335159
2
Properties=species:S:1:pos:R:3:forces:R:3 energy=4.978809513487511 pbc="F F F"
Ba       0.00000000       0.00000000       0.00000000       0.00000000       0.00000000     -16.96549225
Ba       0.00000000       0.00000000       2.41393939       0.00000000       0.00000000      16.96549225
2
Properties=species:S:1:pos:R:3:forces:R:3 energy=4.070962710385015 pbc="F F F"
Ba       0.00000000       0.00000000       0.00000000       0.00000000       0.00000000     -13.94733810
Ba       0.00000000       0.00000000       2.47272727       0.00000000       0.00000000      13.94733810
2
Properties=species:S:1:pos:R:3:forces:R:3 energy=3.3335577908990026 pbc="F F F"
Ba       0.00000000       0.00000000       0.00000000       0.00000000       0.00000000     -11.22174454
Ba       0.00000000       0.00000000       2.53151515       0.00000000       0.00000000      11.22174454
2
Properties=species:S:1:pos:R:3:forces:R:3 energy=2.7365086051628618 pbc="F F F"
Ba       0.00000000       0.00000000       0.00000000       0.00000000       0.00000000      -9.23786545
Ba       0.00000000       0.00000000       2.59030303       0.00000000       0.00000000       9.23786545
2
Properties=species:S:1:pos:R:3:forces:R:3 energy=2.2328585870161253 pbc="F F F"
Ba       0.00000000       0.00000000       0.00000000       0.00000000       0.00000000      -7.98514605
Ba       0.00000000       0.00000000       2.64909091       0.00000000       0.00000000       7.98514605
2
Properties=species:S:1:pos:R:3:forces:R:3 energy=1.7911661366202163 pbc="F F F"
Ba       0.00000000       0.00000000       0.00000000       0.00000000       0.00000000      -7.06942940
Ba       0.00000000       0.00000000       2.70787879       0.00000000       0.00000000       7.06942940
2
Properties=species:S:1:pos:R:3:forces:R:3 energy=1.40016057552071 pbc="F F F"
Ba       0.00000000       0.00000000       0.00000000       0.00000000       0.00000000      -6.23865461
Ba       0.00000000       0.00000000       2.76666667       0.00000000       0.00000000       6.23865461
2
Properties=species:S:1:pos:R:3:forces:R:3 energy=1.0568264172073516 pbc="F F F"
Ba       0.00000000       0.00000000       0.00000000       0.00000000       0.00000000      -5.45191050
Ba       0.00000000       0.00000000       2.82545455       0.00000000       0.00000000       5.45191050
2
Properties=species:S:1:pos:R:3:forces:R:3 energy=0.7575985830032592 pbc="F F F"
Ba       0.00000000       0.00000000       0.00000000       0.00000000       0.00000000      -4.74331093
Ba       0.00000000       0.00000000       2.88424242       0.00000000       0.00000000       4.74331093
2
Properties=species:S:1:pos:R:3:forces:R:3 energy=0.49727035960129096 pbc="F F F"
Ba       0.00000000       0.00000000       0.00000000       0.00000000       0.00000000      -4.12854528
Ba       0.00000000       0.00000000       2.94303030       0.00000000       0.00000000       4.12854528
2
Properties=species:S:1:pos:R:3:forces:R:3 energy=0.27059093659255573 pbc="F F F"
Ba       0.00000000       0.00000000       0.00000000       0.00000000       0.00000000      -3.59454608
Ba       0.00000000       0.00000000       3.00181818       0.00000000       0.00000000       3.59454608
2
Properties=species:S:1:pos:R:3:forces:R:3 energy=0.0735551035956976 pbc="F F F"
Ba       0.00000000       0.00000000       0.00000000       0.00000000       0.00000000      -3.11635685
Ba       0.00000000       0.00000000       3.06060606       0.00000000       0.00000000       3.11635685
2
Properties=species:S:1:pos:R:3:forces:R:3 energy=-0.09663863538529438 pbc="F F F"
Ba       0.00000000       0.00000000       0.00000000       0.00000000       0.00000000      -2.68079948
Ba       0.00000000       0.00000000       3.11939394       0.00000000       0.00000000       2.68079948
2
Properties=species:S:1:pos:R:3:forces:R:3 energy=-0.24254668505508697 pbc="F F F"
Ba       0.00000000       0.00000000       0.00000000       0.00000000       0.00000000      -2.29148030
Ba       0.00000000       0.00000000       3.17818182       0.00000000       0.00000000       2.29148030
2
Properties=species:S:1:pos:R:3:forces:R:3 energy=-0.3671361036100603 pbc="F F F"
Ba       0.00000000       0.00000000       0.00000000       0.00000000       0.00000000      -1.95670056
Ba       0.00000000       0.00000000       3.23696970       0.00000000       0.00000000       1.95670056
2
Properties=species:S:1:pos:R:3:forces:R:3 energy=-0.4737075038464701 pbc="F F F"
Ba       0.00000000       0.00000000       0.00000000       0.00000000       0.00000000      -1.67780054
Ba       0.00000000       0.00000000       3.29575758       0.00000000       0.00000000       1.67780054
2
Properties=species:S:1:pos:R:3:forces:R:3 energy=-0.565368301819932 pbc="F F F"
Ba       0.00000000       0.00000000       0.00000000       0.00000000       0.00000000      -1.44800627
Ba       0.00000000       0.00000000       3.35454545       0.00000000       0.00000000       1.44800627
2
Properties=species:S:1:pos:R:3:forces:R:3 energy=-0.644719610566687 pbc="F F F"
Ba       0.00000000       0.00000000       0.00000000       0.00000000       0.00000000      -1.25708258
Ba       0.00000000       0.00000000       3.41333333       0.00000000       0.00000000       1.25708258
2
Properties=species:S:1:pos:R:3:forces:R:3 energy=-0.7137199123535368 pbc="F F F"
Ba       0.00000000       0.00000000       0.00000000       0.00000000       0.00000000      -1.09405851
Ba       0.00000000       0.00000000       3.47212121       0.00000000       0.00000000       1.09405851
2
Properties=species:S:1:pos:R:3:forces:R:3 energy=-0.7737104844468283 pbc="F F F"
Ba       0.00000000       0.00000000       0.00000000       0.00000000       0.00000000      -0.94931382
Ba       0.00000000       0.00000000       3.53090909       0.00000000       0.00000000       0.94931382
2
Properties=species:S:1:pos:R:3:forces:R:3 energy=-0.825581012317677 pbc="F F F"
Ba       0.00000000       0.00000000       0.00000000       0.00000000       0.00000000      -0.81725967
Ba       0.00000000       0.00000000       3.58969697       0.00000000       0.00000000       0.81725967
2
Properties=species:S:1:pos:R:3:forces:R:3 energy=-0.8700252533944673 pbc="F F F"
Ba       0.00000000       0.00000000       0.00000000       0.00000000       0.00000000      -0.69677663
Ba       0.00000000       0.00000000       3.64848485       0.00000000       0.00000000       0.69677663
2
Properties=species:S:1:pos:R:3:forces:R:3 energy=-0.907751311242168 pbc="F F F"
Ba       0.00000000       0.00000000       0.00000000       0.00000000       0.00000000      -0.58893192
Ba       0.00000000       0.00000000       3.70727273       0.00000000       0.00000000       0.58893192
2
Properties=species:S:1:pos:R:3:forces:R:3 energy=-0.9395281375206411 pbc="F F F"
Ba       0.00000000       0.00000000       0.00000000       0.00000000       0.00000000      -0.49423644
Ba       0.00000000       0.00000000       3.76606061       0.00000000       0.00000000       0.49423644
2
Properties=species:S:1:pos:R:3:forces:R:3 energy=-0.9660896133519478 pbc="F F F"
Ba       0.00000000       0.00000000       0.00000000       0.00000000       0.00000000      -0.41120419
Ba       0.00000000       0.00000000       3.82484848       0.00000000       0.00000000       0.41120419
2
Properties=species:S:1:pos:R:3:forces:R:3 energy=-0.9880403289600246 pbc="F F F"
Ba       0.00000000       0.00000000       0.00000000       0.00000000       0.00000000      -0.33655179
Ba       0.00000000       0.00000000       3.88363636       0.00000000       0.00000000       0.33655179
2
Properties=species:S:1:pos:R:3:forces:R:3 energy=-1.005751826567197 pbc="F F F"
Ba       0.00000000       0.00000000       0.00000000       0.00000000       0.00000000      -0.26645917
Ba       0.00000000       0.00000000       3.94242424       0.00000000       0.00000000       0.26645917
2
Properties=species:S:1:pos:R:3:forces:R:3 energy=-1.0193997623339963 pbc="F F F"
Ba       0.00000000       0.00000000       0.00000000       0.00000000       0.00000000      -0.19790380
Ba       0.00000000       0.00000000       4.00121212       0.00000000       0.00000000       0.19790380
2
Properties=species:S:1:pos:R:3:forces:R:3 energy=-1.0290201254666465 pbc="F F F"
Ba       0.00000000       0.00000000       0.00000000       0.00000000       0.00000000      -0.12940879
Ba       0.00000000       0.00000000       4.06000000       0.00000000       0.00000000       0.12940879
2
Properties=species:S:1:pos:R:3:forces:R:3 energy=-1.0346171714692414 pbc="F F F"
Ba       0.00000000       0.00000000       0.00000000       0.00000000       0.00000000      -0.06104773
Ba       0.00000000       0.00000000       4.11878788       0.00000000       0.00000000       0.06104773
2
Properties=species:S:1:pos:R:3:forces:R:3 energy=-1.0362203662029528 pbc="F F F"
Ba       0.00000000       0.00000000       0.00000000       0.00000000       0.00000000       0.00604534
Ba       0.00000000       0.00000000       4.17757576       0.00000000       0.00000000      -0.00604534
2
Properties=species:S:1:pos:R:3:forces:R:3 energy=-1.0339597285255997 pbc="F F F"
Ba       0.00000000       0.00000000       0.00000000       0.00000000       0.00000000       0.07030614
Ba       0.00000000       0.00000000       4.23636364       0.00000000       0.00000000      -0.07030614
2
Properties=species:S:1:pos:R:3:forces:R:3 energy=-1.0280412075509904 pbc="F F F"
Ba       0.00000000       0.00000000       0.00000000       0.00000000       0.00000000       0.13022868
Ba       0.00000000       0.00000000       4.29515152       0.00000000       0.00000000      -0.13022868
2
Properties=species:S:1:pos:R:3:forces:R:3 energy=-1.018758245519463 pbc="F F F"
Ba       0.00000000       0.00000000       0.00000000       0.00000000       0.00000000       0.18460011
Ba       0.00000000       0.00000000       4.35393939       0.00000000       0.00000000      -0.18460011
2
Properties=species:S:1:pos:R:3:forces:R:3 energy=-1.0064606730537133 pbc="F F F"
Ba       0.00000000       0.00000000       0.00000000       0.00000000       0.00000000       0.23258889
Ba       0.00000000       0.00000000       4.41272727       0.00000000       0.00000000      -0.23258889
2
Properties=species:S:1:pos:R:3:forces:R:3 energy=-0.9915436875062933 pbc="F F F"
Ba       0.00000000       0.00000000       0.00000000       0.00000000       0.00000000       0.27385041
Ba       0.00000000       0.00000000       4.47151515       0.00000000       0.00000000      -0.27385041
2
Properties=species:S:1:pos:R:3:forces:R:3 energy=-0.9743885172238559 pbc="F F F"
Ba       0.00000000       0.00000000       0.00000000       0.00000000       0.00000000       0.30878294
Ba       0.00000000       0.00000000       4.53030303       0.00000000       0.00000000      -0.30878294
2
Properties=species:S:1:pos:R:3:forces:R:3 energy=-0.9553338709544106 pbc="F F F"
Ba       0.00000000       0.00000000       0.00000000       0.00000000       0.00000000       0.33883506
Ba       0.00000000       0.00000000       4.58909091       0.00000000       0.00000000      -0.33883506
2
Properties=species:S:1:pos:R:3:forces:R:3 energy=-0.9346001236094801 pbc="F F F"
Ba       0.00000000       0.00000000       0.00000000       0.00000000       0.00000000       0.36636016
Ba       0.00000000       0.00000000       4.64787879       0.00000000       0.00000000      -0.36636016
2
Properties=species:S:1:pos:R:3:forces:R:3 energy=-0.9122632067542569 pbc="F F F"
Ba       0.00000000       0.00000000       0.00000000       0.00000000       0.00000000       0.39360201
Ba       0.00000000       0.00000000       4.70666667       0.00000000       0.00000000      -0.39360201
2
Properties=species:S:1:pos:R:3:forces:R:3 energy=-0.8883110812131851 pbc="F F F"
Ba       0.00000000       0.00000000       0.00000000       0.00000000       0.00000000       0.42136726
Ba       0.00000000       0.00000000       4.76545455       0.00000000       0.00000000      -0.42136726
2
Properties=species:S:1:pos:R:3:forces:R:3 energy=-0.8627261613753271 pbc="F F F"
Ba       0.00000000       0.00000000       0.00000000       0.00000000       0.00000000       0.44875926
Ba       0.00000000       0.00000000       4.82424242       0.00000000       0.00000000      -0.44875926
2
Properties=species:S:1:pos:R:3:forces:R:3 energy=-0.8355886961402371 pbc="F F F"
Ba       0.00000000       0.00000000       0.00000000       0.00000000       0.00000000       0.47413966
Ba       0.00000000       0.00000000       4.88303030       0.00000000       0.00000000      -0.47413966
2
Properties=species:S:1:pos:R:3:forces:R:3 energy=-0.8070446495116043 pbc="F F F"
Ba       0.00000000       0.00000000       0.00000000       0.00000000       0.00000000       0.49620402
Ba       0.00000000       0.00000000       4.94181818       0.00000000       0.00000000      -0.49620402
2
Properties=species:S:1:pos:R:3:forces:R:3 energy=-0.7773247784287017 pbc="F F F"
Ba       0.00000000       0.00000000       0.00000000       0.00000000       0.00000000       0.51411062
Ba       0.00000000       0.00000000       5.00060606       0.00000000       0.00000000      -0.51411062
2
Properties=species:S:1:pos:R:3:forces:R:3 energy=-0.7466921069475023 pbc="F F F"
Ba       0.00000000       0.00000000       0.00000000       0.00000000       0.00000000       0.52704191
Ba       0.00000000       0.00000000       5.05939394       0.00000000       0.00000000      -0.52704191
2
Properties=species:S:1:pos:R:3:forces:R:3 energy=-0.715478998580727 pbc="F F F"
Ba       0.00000000       0.00000000       0.00000000       0.00000000       0.00000000       0.53377378
Ba       0.00000000       0.00000000       5.11818182       0.00000000       0.00000000      -0.53377378
2
Properties=species:S:1:pos:R:3:forces:R:3 energy=-0.6840910082389033 pbc="F F F"
Ba       0.00000000       0.00000000       0.00000000       0.00000000       0.00000000       0.53256190
Ba       0.00000000       0.00000000       5.17696970       0.00000000       0.00000000      -0.53256190
2
Properties=species:S:1:pos:R:3:forces:R:3 energy=-0.6530611029216243 pbc="F F F"
Ba       0.00000000       0.00000000       0.00000000       0.00000000       0.00000000       0.52146572
Ba       0.00000000       0.00000000       5.23575758       0.00000000       0.00000000      -0.52146572
2
Properties=species:S:1:pos:R:3:forces:R:3 energy=-0.6230092899746462 pbc="F F F"
Ba       0.00000000       0.00000000       0.00000000       0.00000000       0.00000000       0.49885672
Ba       0.00000000       0.00000000       5.29454545       0.00000000       0.00000000      -0.49885672
2
Properties=species:S:1:pos:R:3:forces:R:3 energy=-0.5946444891129273 pbc="F F F"
Ba       0.00000000       0.00000000       0.00000000       0.00000000       0.00000000       0.46403885
Ba       0.00000000       0.00000000       5.35333333       0.00000000       0.00000000      -0.46403885
2
Properties=species:S:1:pos:R:3:forces:R:3 energy=-0.5686726876072166 pbc="F F F"
Ba       0.00000000       0.00000000       0.00000000       0.00000000       0.00000000       0.41765741
Ba       0.00000000       0.00000000       5.41212121       0.00000000       0.00000000      -0.41765741
2
Properties=species:S:1:pos:R:3:forces:R:3 energy=-0.5457196826814076 pbc="F F F"
Ba       0.00000000       0.00000000       0.00000000       0.00000000       0.00000000       0.36197683
Ba       0.00000000       0.00000000       5.47090909       0.00000000       0.00000000      -0.36197683
2
Properties=species:S:1:pos:R:3:forces:R:3 energy=-0.5262274064527285 pbc="F F F"
Ba       0.00000000       0.00000000       0.00000000       0.00000000       0.00000000       0.30059382
Ba       0.00000000       0.00000000       5.52969697       0.00000000       0.00000000      -0.30059382
2
Properties=species:S:1:pos:R:3:forces:R:3 energy=-0.510399132024522 pbc="F F F"
Ba       0.00000000       0.00000000       0.00000000       0.00000000       0.00000000       0.23810884
Ba       0.00000000       0.00000000       5.58848485       0.00000000       0.00000000      -0.23810884
2
Properties=species:S:1:pos:R:3:forces:R:3 energy=-0.4981582310718015 pbc="F F F"
Ba       0.00000000       0.00000000       0.00000000       0.00000000       0.00000000       0.17935696
Ba       0.00000000       0.00000000       5.64727273       0.00000000       0.00000000      -0.17935696
2
Properties=species:S:1:pos:R:3:forces:R:3 energy=-0.48915451345261834 pbc="F F F"
Ba       0.00000000       0.00000000       0.00000000       0.00000000       0.00000000       0.12865186
Ba       0.00000000       0.00000000       5.70606061       0.00000000       0.00000000      -0.12865186
2
Properties=species:S:1:pos:R:3:forces:R:3 energy=-0.4828080265345292 pbc="F F F"
Ba       0.00000000       0.00000000       0.00000000       0.00000000       0.00000000       0.08905018
Ba       0.00000000       0.00000000       5.76484848       0.00000000       0.00000000      -0.08905018
2
Properties=species:S:1:pos:R:3:forces:R:3 energy=-0.4784331975824806 pbc="F F F"
Ba       0.00000000       0.00000000       0.00000000       0.00000000       0.00000000       0.06198913
Ba       0.00000000       0.00000000       5.82363636       0.00000000       0.00000000      -0.06198913
2
Properties=species:S:1:pos:R:3:forces:R:3 energy=-0.4752911367987205 pbc="F F F"
Ba       0.00000000       0.00000000       0.00000000       0.00000000       0.00000000       0.04683373
Ba       0.00000000       0.00000000       5.88242424       0.00000000       0.00000000      -0.04683373
2
Properties=species:S:1:pos:R:3:forces:R:3 energy=-0.47274334694216325 pbc="F F F"
Ba       0.00000000       0.00000000       0.00000000       0.00000000       0.00000000       0.04103231
Ba       0.00000000       0.00000000       5.94121212       0.00000000       0.00000000      -0.04103231
2
Properties=species:S:1:pos:R:3:forces:R:3 energy=-0.4703650678601958 pbc="F F F"
Ba       0.00000000       0.00000000       0.00000000       0.00000000       0.00000000       0.04043264
Ba       0.00000000       0.00000000       6.00000000       0.00000000       0.00000000      -0.04043264
