2
Properties=species:S:1:pos:R:3:forces:R:3 energy=-33516080.049226254 pbc="F F F"
Bi       0.00000000       0.00000000       0.00000000       0.00000000       0.00000000 204529168.00000000
Bi       0.00000000       0.00000000       0.10000000       0.00000000       0.00000000 -204529168.00000000
2
Properties=species:S:1:pos:R:3:forces:R:3 energy=-20757290.049226254 pbc="F F F"
Bi       0.00000000       0.00000000       0.00000000       0.00000000       0.00000000 208424944.00000000
Bi       0.00000000       0.00000000       0.15959596       0.00000000       0.00000000 -208424944.00000000
2
Properties=species:S:1:pos:R:3:forces:R:3 energy=-9990033.049226254 pbc="F F F"
Bi       0.00000000       0.00000000       0.00000000       0.00000000       0.00000000 146666368.00000000
Bi       0.00000000       0.00000000       0.21919192       0.00000000       0.00000000 -146666368.00000000
2
Properties=species:S:1:pos:R:3:forces:R:3 energy=-3504093.549226255 pbc="F F F"
Bi       0.00000000       0.00000000       0.00000000       0.00000000       0.00000000 72842136.00000000
Bi       0.00000000       0.00000000       0.27878788       0.00000000       0.00000000 -72842136.00000000
2
Properties=species:S:1:pos:R:3:forces:R:3 energy=-799484.7992262519 pbc="F F F"
Bi       0.00000000       0.00000000       0.00000000       0.00000000       0.00000000 23338014.00000000
Bi       0.00000000       0.00000000       0.33838384       0.00000000       0.00000000 -23338014.00000000
2
Properties=species:S:1:pos:R:3:forces:R:3 energy=-107224.84610124555 pbc="F F F"
Bi       0.00000000       0.00000000       0.00000000       0.00000000       0.00000000 4246543.00000000
Bi       0.00000000       0.00000000       0.39797980       0.00000000       0.00000000 -4246543.00000000
2
Properties=species:S:1:pos:R:3:forces:R:3 energy=-6115.91739030172 pbc="F F F"
Bi       0.00000000       0.00000000       0.00000000       0.00000000       0.00000000  352841.78125000
Bi       0.00000000       0.00000000       0.45757576       0.00000000       0.00000000 -352841.78125000
2
Properties=species:S:1:pos:R:3:forces:R:3 energy=-619.9518141171733 pbc="F F F"
Bi       0.00000000       0.00000000       0.00000000       0.00000000       0.00000000    6259.36767578
Bi       0.00000000       0.00000000       0.51717172       0.00000000       0.00000000   -6259.36767578
2
Properties=species:S:1:pos:R:3:forces:R:3 energy=-212.46453992190882 pbc="F F F"
Bi       0.00000000       0.00000000       0.00000000       0.00000000       0.00000000    7516.22363281
Bi       0.00000000       0.00000000       0.57676768       0.00000000       0.00000000   -7516.22363281
2
Properties=species:S:1:pos:R:3:forces:R:3 energy=330.83199942274564 pbc="F F F"
Bi       0.00000000       0.00000000       0.00000000       0.00000000       0.00000000    6221.80566406
Bi       0.00000000       0.00000000       0.63636364       0.00000000       0.00000000   -6221.80566406
2
Properties=species:S:1:pos:R:3:forces:R:3 energy=283.0011889455627 pbc="F F F"
Bi       0.00000000       0.00000000       0.00000000       0.00000000       0.00000000   -4426.18652344
Bi       0.00000000       0.00000000       0.69595960       0.00000000       0.00000000    4426.18652344
2
Properties=species:S:1:pos:R:3:forces:R:3 energy=118.97034340801103 pbc="F F F"
Bi       0.00000000       0.00000000       0.00000000       0.00000000       0.00000000   -1088.35961914
Bi       0.00000000       0.00000000       0.75555556       0.00000000       0.00000000    1088.35961914
2
Properties=species:S:1:pos:R:3:forces:R:3 energy=93.14524743286321 pbc="F F F"
Bi       0.00000000       0.00000000       0.00000000       0.00000000       0.00000000    -211.35916138
Bi       0.00000000       0.00000000       0.81515152       0.00000000       0.00000000     211.35916138
2
Properties=species:S:1:pos:R:3:forces:R:3 energy=89.5251304702786 pbc="F F F"
Bi       0.00000000       0.00000000       0.00000000       0.00000000       0.00000000     -16.39301300
Bi       0.00000000       0.00000000       0.87474747       0.00000000       0.00000000      16.39301300
2
Properties=species:S:1:pos:R:3:forces:R:3 energy=87.04783587152146 pbc="F F F"
Bi       0.00000000       0.00000000       0.00000000       0.00000000       0.00000000    -110.98606873
Bi       0.00000000       0.00000000       0.93434343       0.00000000       0.00000000     110.98606873
2
Properties=species:S:1:pos:R:3:forces:R:3 energy=58.68107606427812 pbc="F F F"
Bi       0.00000000       0.00000000       0.00000000       0.00000000       0.00000000    -701.72674561
Bi       0.00000000       0.00000000       0.99393939       0.00000000       0.00000000     701.72674561
2
Properties=species:S:1:pos:R:3:forces:R:3 energy=22.465418478298123 pbc="F F F"
Bi       0.00000000       0.00000000       0.00000000       0.00000000       0.00000000    -323.87658691
Bi       0.00000000       0.00000000       1.05353535       0.00000000       0.00000000     323.87658691
2
Properties=species:S:1:pos:R:3:forces:R:3 energy=15.875087251674948 pbc="F F F"
Bi       0.00000000       0.00000000       0.00000000       0.00000000       0.00000000      76.51974487
Bi       0.00000000       0.00000000       1.11313131       0.00000000       0.00000000     -76.51974487
2
Properties=species:S:1:pos:R:3:forces:R:3 energy=28.746529194010897 pbc="F F F"
Bi       0.00000000       0.00000000       0.00000000       0.00000000       0.00000000     295.48294067
Bi       0.00000000       0.00000000       1.17272727       0.00000000       0.00000000    -295.48294067
2
Properties=species:S:1:pos:R:3:forces:R:3 energy=50.80727009239327 pbc="F F F"
Bi       0.00000000       0.00000000       0.00000000       0.00000000       0.00000000     306.34909058
Bi       0.00000000       0.00000000       1.23232323       0.00000000       0.00000000    -306.34909058
2
Properties=species:S:1:pos:R:3:forces:R:3 energy=61.85832014201444 pbc="F F F"
Bi       0.00000000       0.00000000       0.00000000       0.00000000       0.00000000      12.82060528
Bi       0.00000000       0.00000000       1.29191919       0.00000000       0.00000000     -12.82060528
2
Properties=species:S:1:pos:R:3:forces:R:3 energy=58.82150292682471 pbc="F F F"
Bi       0.00000000       0.00000000       0.00000000       0.00000000       0.00000000     -86.84396362
Bi       0.00000000       0.00000000       1.35151515       0.00000000       0.00000000      86.84396362
2
Properties=species:S:1:pos:R:3:forces:R:3 energy=51.92638703914316 pbc="F F F"
Bi       0.00000000       0.00000000       0.00000000       0.00000000       0.00000000    -130.03094482
Bi       0.00000000       0.00000000       1.41111111       0.00000000       0.00000000     130.03094482
2
Properties=species:S:1:pos:R:3:forces:R:3 energy=45.048636350335606 pbc="F F F"
Bi       0.00000000       0.00000000       0.00000000       0.00000000       0.00000000     -99.79093170
Bi       0.00000000       0.00000000       1.47070707       0.00000000       0.00000000      99.79093170
2
Properties=species:S:1:pos:R:3:forces:R:3 energy=40.549693565704196 pbc="F F F"
Bi       0.00000000       0.00000000       0.00000000       0.00000000       0.00000000     -55.51021194
Bi       0.00000000       0.00000000       1.53030303       0.00000000       0.00000000      55.51021194
2
Properties=species:S:1:pos:R:3:forces:R:3 energy=37.3880930716914 pbc="F F F"
Bi       0.00000000       0.00000000       0.00000000       0.00000000       0.00000000     -56.05463409
Bi       0.00000000       0.00000000       1.58989899       0.00000000       0.00000000      56.05463409
2
Properties=species:S:1:pos:R:3:forces:R:3 energy=33.396263036882175 pbc="F F F"
Bi       0.00000000       0.00000000       0.00000000       0.00000000       0.00000000     -77.82263184
Bi       0.00000000       0.00000000       1.64949495       0.00000000       0.00000000      77.82263184
2
Properties=species:S:1:pos:R:3:forces:R:3 energy=28.038808989102385 pbc="F F F"
Bi       0.00000000       0.00000000       0.00000000       0.00000000       0.00000000    -100.44331360
Bi       0.00000000       0.00000000       1.70909091       0.00000000       0.00000000     100.44331360
2
Properties=species:S:1:pos:R:3:forces:R:3 energy=22.03064547516683 pbc="F F F"
Bi       0.00000000       0.00000000       0.00000000       0.00000000       0.00000000     -97.48777008
Bi       0.00000000       0.00000000       1.76868687       0.00000000       0.00000000      97.48777008
2
Properties=species:S:1:pos:R:3:forces:R:3 energy=16.473960874691947 pbc="F F F"
Bi       0.00000000       0.00000000       0.00000000       0.00000000       0.00000000     -88.33393097
Bi       0.00000000       0.00000000       1.82828283       0.00000000       0.00000000      88.33393097
2
Properties=species:S:1:pos:R:3:forces:R:3 energy=11.708200577414004 pbc="F F F"
Bi       0.00000000       0.00000000       0.00000000       0.00000000       0.00000000     -71.30314636
Bi       0.00000000       0.00000000       1.88787879       0.00000000       0.00000000      71.30314636
2
Properties=species:S:1:pos:R:3:forces:R:3 energy=7.936416514710188 pbc="F F F"
Bi       0.00000000       0.00000000       0.00000000       0.00000000       0.00000000     -55.66122818
Bi       0.00000000       0.00000000       1.94747475       0.00000000       0.00000000      55.66122818
2
Properties=species:S:1:pos:R:3:forces:R:3 energy=5.031914336773746 pbc="F F F"
Bi       0.00000000       0.00000000       0.00000000       0.00000000       0.00000000     -42.26628876
Bi       0.00000000       0.00000000       2.00707071       0.00000000       0.00000000      42.26628876
2
Properties=species:S:1:pos:R:3:forces:R:3 energy=2.8359353382950956 pbc="F F F"
Bi       0.00000000       0.00000000       0.00000000       0.00000000       0.00000000     -31.96805954
Bi       0.00000000       0.00000000       2.06666667       0.00000000       0.00000000      31.96805954
2
Properties=species:S:1:pos:R:3:forces:R:3 energy=1.1637170270643533 pbc="F F F"
Bi       0.00000000       0.00000000       0.00000000       0.00000000       0.00000000     -24.59928131
Bi       0.00000000       0.00000000       2.12626263       0.00000000       0.00000000      24.59928131
2
Properties=species:S:1:pos:R:3:forces:R:3 energy=-0.14678796574481628 pbc="F F F"
Bi       0.00000000       0.00000000       0.00000000       0.00000000       0.00000000     -19.68257332
Bi       0.00000000       0.00000000       2.18585859       0.00000000       0.00000000      19.68257332
2
Properties=species:S:1:pos:R:3:forces:R:3 energy=-1.1955842387726683 pbc="F F F"
Bi       0.00000000       0.00000000       0.00000000       0.00000000       0.00000000     -15.57197571
Bi       0.00000000       0.00000000       2.24545455       0.00000000       0.00000000      15.57197571
2
Properties=species:S:1:pos:R:3:forces:R:3 energy=-2.0208930262230824 pbc="F F F"
Bi       0.00000000       0.00000000       0.00000000       0.00000000       0.00000000     -12.32887554
Bi       0.00000000       0.00000000       2.30505051       0.00000000       0.00000000      12.32887554
2
Properties=species:S:1:pos:R:3:forces:R:3 energy=-2.685825463934315 pbc="F F F"
Bi       0.00000000       0.00000000       0.00000000       0.00000000       0.00000000     -10.10521221
Bi       0.00000000       0.00000000       2.36464646       0.00000000       0.00000000      10.10521221
2
Properties=species:S:1:pos:R:3:forces:R:3 energy=-3.232277179209762 pbc="F F F"
Bi       0.00000000       0.00000000       0.00000000       0.00000000       0.00000000      -8.24619579
Bi       0.00000000       0.00000000       2.42424242       0.00000000       0.00000000       8.24619579
2
Properties=species:S:1:pos:R:3:forces:R:3 energy=-3.6704634284749638 pbc="F F F"
Bi       0.00000000       0.00000000       0.00000000       0.00000000       0.00000000      -6.48865557
Bi       0.00000000       0.00000000       2.48383838       0.00000000       0.00000000       6.48865557
2
Properties=species:S:1:pos:R:3:forces:R:3 energy=-4.009073475207613 pbc="F F F"
Bi       0.00000000       0.00000000       0.00000000       0.00000000       0.00000000      -4.89672279
Bi       0.00000000       0.00000000       2.54343434       0.00000000       0.00000000       4.89672279
2
Properties=species:S:1:pos:R:3:forces:R:3 energy=-4.257102254510743 pbc="F F F"
Bi       0.00000000       0.00000000       0.00000000       0.00000000       0.00000000      -3.46007776
Bi       0.00000000       0.00000000       2.60303030       0.00000000       0.00000000       3.46007776
2
Properties=species:S:1:pos:R:3:forces:R:3 energy=-4.426141000618251 pbc="F F F"
Bi       0.00000000       0.00000000       0.00000000       0.00000000       0.00000000      -2.25336432
Bi       0.00000000       0.00000000       2.66262626       0.00000000       0.00000000       2.25336432
2
Properties=species:S:1:pos:R:3:forces:R:3 energy=-4.530031838562398 pbc="F F F"
Bi       0.00000000       0.00000000       0.00000000       0.00000000       0.00000000      -1.26448679
Bi       0.00000000       0.00000000       2.72222222       0.00000000       0.00000000       1.26448679
2
Properties=species:S:1:pos:R:3:forces:R:3 energy=-4.5803609577730535 pbc="F F F"
Bi       0.00000000       0.00000000       0.00000000       0.00000000       0.00000000      -0.45465654
Bi       0.00000000       0.00000000       2.78181818       0.00000000       0.00000000       0.45465654
2
Properties=species:S:1:pos:R:3:forces:R:3 energy=-4.588006412821934 pbc="F F F"
Bi       0.00000000       0.00000000       0.00000000       0.00000000       0.00000000       0.16596253
Bi       0.00000000       0.00000000       2.84141414       0.00000000       0.00000000      -0.16596253
2
Properties=species:S:1:pos:R:3:forces:R:3 energy=-4.564160032969964 pbc="F F F"
Bi       0.00000000       0.00000000       0.00000000       0.00000000       0.00000000       0.60754097
Bi       0.00000000       0.00000000       2.90101010       0.00000000       0.00000000      -0.60754097
2
Properties=species:S:1:pos:R:3:forces:R:3 energy=-4.518291295823527 pbc="F F F"
Bi       0.00000000       0.00000000       0.00000000       0.00000000       0.00000000       0.91342884
Bi       0.00000000       0.00000000       2.96060606       0.00000000       0.00000000      -0.91342884
2
Properties=species:S:1:pos:R:3:forces:R:3 energy=-4.457020665667765 pbc="F F F"
Bi       0.00000000       0.00000000       0.00000000       0.00000000       0.00000000       1.13132620
Bi       0.00000000       0.00000000       3.02020202       0.00000000       0.00000000      -1.13132620
2
Properties=species:S:1:pos:R:3:forces:R:3 energy=-4.3845868273573485 pbc="F F F"
Bi       0.00000000       0.00000000       0.00000000       0.00000000       0.00000000       1.29095340
Bi       0.00000000       0.00000000       3.07979798       0.00000000       0.00000000      -1.29095340
2
Properties=species:S:1:pos:R:3:forces:R:3 energy=-4.304107191840982 pbc="F F F"
Bi       0.00000000       0.00000000       0.00000000       0.00000000       0.00000000       1.40239668
Bi       0.00000000       0.00000000       3.13939394       0.00000000       0.00000000      -1.40239668
2
Properties=species:S:1:pos:R:3:forces:R:3 energy=-4.21824762262165 pbc="F F F"
Bi       0.00000000       0.00000000       0.00000000       0.00000000       0.00000000       1.47294903
Bi       0.00000000       0.00000000       3.19898990       0.00000000       0.00000000      -1.47294903
2
Properties=species:S:1:pos:R:3:forces:R:3 energy=-4.129191092721044 pbc="F F F"
Bi       0.00000000       0.00000000       0.00000000       0.00000000       0.00000000       1.51065302
Bi       0.00000000       0.00000000       3.25858586       0.00000000       0.00000000      -1.51065302
2
Properties=species:S:1:pos:R:3:forces:R:3 energy=-4.038778479026191 pbc="F F F"
Bi       0.00000000       0.00000000       0.00000000       0.00000000       0.00000000       1.51862431
Bi       0.00000000       0.00000000       3.31818182       0.00000000       0.00000000      -1.51862431
2
Properties=species:S:1:pos:R:3:forces:R:3 energy=-3.9487560556218986 pbc="F F F"
Bi       0.00000000       0.00000000       0.00000000       0.00000000       0.00000000       1.49790215
Bi       0.00000000       0.00000000       3.37777778       0.00000000       0.00000000      -1.49790215
2
Properties=species:S:1:pos:R:3:forces:R:3 energy=-3.8607262868647054 pbc="F F F"
Bi       0.00000000       0.00000000       0.00000000       0.00000000       0.00000000       1.45291138
Bi       0.00000000       0.00000000       3.43737374       0.00000000       0.00000000      -1.45291138
2
Properties=species:S:1:pos:R:3:forces:R:3 energy=-3.775892919555583 pbc="F F F"
Bi       0.00000000       0.00000000       0.00000000       0.00000000       0.00000000       1.39219141
Bi       0.00000000       0.00000000       3.49696970       0.00000000       0.00000000      -1.39219141
2
Properties=species:S:1:pos:R:3:forces:R:3 energy=-3.694922812476483 pbc="F F F"
Bi       0.00000000       0.00000000       0.00000000       0.00000000       0.00000000       1.32460022
Bi       0.00000000       0.00000000       3.55656566       0.00000000       0.00000000      -1.32460022
2
Properties=species:S:1:pos:R:3:forces:R:3 energy=-3.618040355905749 pbc="F F F"
Bi       0.00000000       0.00000000       0.00000000       0.00000000       0.00000000       1.25544798
Bi       0.00000000       0.00000000       3.61616162       0.00000000       0.00000000      -1.25544798
2
Properties=species:S:1:pos:R:3:forces:R:3 energy=-3.545287698665679 pbc="F F F"
Bi       0.00000000       0.00000000       0.00000000       0.00000000       0.00000000       1.18600416
Bi       0.00000000       0.00000000       3.67575758       0.00000000       0.00000000      -1.18600416
2
Properties=species:S:1:pos:R:3:forces:R:3 energy=-3.4766954836343174 pbc="F F F"
Bi       0.00000000       0.00000000       0.00000000       0.00000000       0.00000000       1.11573899
Bi       0.00000000       0.00000000       3.73535354       0.00000000       0.00000000      -1.11573899
2
Properties=species:S:1:pos:R:3:forces:R:3 energy=-3.412316445216781 pbc="F F F"
Bi       0.00000000       0.00000000       0.00000000       0.00000000       0.00000000       1.04469800
Bi       0.00000000       0.00000000       3.79494949       0.00000000       0.00000000      -1.04469800
2
Properties=species:S:1:pos:R:3:forces:R:3 energy=-3.352164606271945 pbc="F F F"
Bi       0.00000000       0.00000000       0.00000000       0.00000000       0.00000000       0.97417885
Bi       0.00000000       0.00000000       3.85454545       0.00000000       0.00000000      -0.97417885
2
Properties=species:S:1:pos:R:3:forces:R:3 energy=-3.2961591087928555 pbc="F F F"
Bi       0.00000000       0.00000000       0.00000000       0.00000000       0.00000000       0.90585065
Bi       0.00000000       0.00000000       3.91414141       0.00000000       0.00000000      -0.90585065
2
Properties=species:S:1:pos:R:3:forces:R:3 energy=-3.2441323214172186 pbc="F F F"
Bi       0.00000000       0.00000000       0.00000000       0.00000000       0.00000000       0.84065425
Bi       0.00000000       0.00000000       3.97373737       0.00000000       0.00000000      -0.84065425
2
Properties=species:S:1:pos:R:3:forces:R:3 energy=-3.195897120631671 pbc="F F F"
Bi       0.00000000       0.00000000       0.00000000       0.00000000       0.00000000       0.77855027
Bi       0.00000000       0.00000000       4.03333333       0.00000000       0.00000000      -0.77855027
2
Properties=species:S:1:pos:R:3:forces:R:3 energy=-3.1512827082435377 pbc="F F F"
Bi       0.00000000       0.00000000       0.00000000       0.00000000       0.00000000       0.71907061
Bi       0.00000000       0.00000000       4.09292929       0.00000000       0.00000000      -0.71907061
2
Properties=species:S:1:pos:R:3:forces:R:3 energy=-3.1101418216310748 pbc="F F F"
Bi       0.00000000       0.00000000       0.00000000       0.00000000       0.00000000       0.66205108
Bi       0.00000000       0.00000000       4.15252525       0.00000000       0.00000000      -0.66205108
2
Properties=species:S:1:pos:R:3:forces:R:3 energy=-3.0723148702583614 pbc="F F F"
Bi       0.00000000       0.00000000       0.00000000       0.00000000       0.00000000       0.60795897
Bi       0.00000000       0.00000000       4.21212121       0.00000000       0.00000000      -0.60795897
2
Properties=species:S:1:pos:R:3:forces:R:3 energy=-3.0376006370366353 pbc="F F F"
Bi       0.00000000       0.00000000       0.00000000       0.00000000       0.00000000       0.55774140
Bi       0.00000000       0.00000000       4.27171717       0.00000000       0.00000000      -0.55774140
2
Properties=species:S:1:pos:R:3:forces:R:3 energy=-3.00573775053529 pbc="F F F"
Bi       0.00000000       0.00000000       0.00000000       0.00000000       0.00000000       0.51244211
Bi       0.00000000       0.00000000       4.33131313       0.00000000       0.00000000      -0.51244211
2
Properties=species:S:1:pos:R:3:forces:R:3 energy=-2.9764089440061605 pbc="F F F"
Bi       0.00000000       0.00000000       0.00000000       0.00000000       0.00000000       0.47280690
Bi       0.00000000       0.00000000       4.39090909       0.00000000       0.00000000      -0.47280690
2
Properties=species:S:1:pos:R:3:forces:R:3 energy=-2.949265647343216 pbc="F F F"
Bi       0.00000000       0.00000000       0.00000000       0.00000000       0.00000000       0.43902937
Bi       0.00000000       0.00000000       4.45050505       0.00000000       0.00000000      -0.43902937
2
Properties=species:S:1:pos:R:3:forces:R:3 energy=-2.923972475490265 pbc="F F F"
Bi       0.00000000       0.00000000       0.00000000       0.00000000       0.00000000       0.41066021
Bi       0.00000000       0.00000000       4.51010101       0.00000000       0.00000000      -0.41066021
2
Properties=species:S:1:pos:R:3:forces:R:3 energy=-2.9002297261505117 pbc="F F F"
Bi       0.00000000       0.00000000       0.00000000       0.00000000       0.00000000       0.38672835
Bi       0.00000000       0.00000000       4.56969697       0.00000000       0.00000000      -0.38672835
2
Properties=species:S:1:pos:R:3:forces:R:3 energy=-2.8778123972382317 pbc="F F F"
Bi       0.00000000       0.00000000       0.00000000       0.00000000       0.00000000       0.36600316
Bi       0.00000000       0.00000000       4.62929293       0.00000000       0.00000000      -0.36600316
2
Properties=species:S:1:pos:R:3:forces:R:3 energy=-2.8565654700242638 pbc="F F F"
Bi       0.00000000       0.00000000       0.00000000       0.00000000       0.00000000       0.34733859
Bi       0.00000000       0.00000000       4.68888889       0.00000000       0.00000000      -0.34733859
2
Properties=species:S:1:pos:R:3:forces:R:3 energy=-2.8363879667694296 pbc="F F F"
Bi       0.00000000       0.00000000       0.00000000       0.00000000       0.00000000       0.32995966
Bi       0.00000000       0.00000000       4.74848485       0.00000000       0.00000000      -0.32995966
2
Properties=species:S:1:pos:R:3:forces:R:3 energy=-2.8172170788819644 pbc="F F F"
Bi       0.00000000       0.00000000       0.00000000       0.00000000       0.00000000       0.31362563
Bi       0.00000000       0.00000000       4.80808081       0.00000000       0.00000000      -0.31362563
2
Properties=species:S:1:pos:R:3:forces:R:3 energy=-2.7989814337081866 pbc="F F F"
Bi       0.00000000       0.00000000       0.00000000       0.00000000       0.00000000       0.29857272
Bi       0.00000000       0.00000000       4.86767677       0.00000000       0.00000000      -0.29857272
2
Properties=species:S:1:pos:R:3:forces:R:3 energy=-2.7815928900983256 pbc="F F F"
Bi       0.00000000       0.00000000       0.00000000       0.00000000       0.00000000       0.28528351
Bi       0.00000000       0.00000000       4.92727273       0.00000000       0.00000000      -0.28528351
2
Properties=species:S:1:pos:R:3:forces:R:3 energy=-2.764935496708059 pbc="F F F"
Bi       0.00000000       0.00000000       0.00000000       0.00000000       0.00000000       0.27414995
Bi       0.00000000       0.00000000       4.98686869       0.00000000       0.00000000      -0.27414995
2
Properties=species:S:1:pos:R:3:forces:R:3 energy=-2.748875963409063 pbc="F F F"
Bi       0.00000000       0.00000000       0.00000000       0.00000000       0.00000000       0.26516080
Bi       0.00000000       0.00000000       5.04646465       0.00000000       0.00000000      -0.26516080
2
Properties=species:S:1:pos:R:3:forces:R:3 energy=-2.7332997646966835 pbc="F F F"
Bi       0.00000000       0.00000000       0.00000000       0.00000000       0.00000000       0.25771412
Bi       0.00000000       0.00000000       5.10606061       0.00000000       0.00000000      -0.25771412
2
Properties=species:S:1:pos:R:3:forces:R:3 energy=-2.7181493135890773 pbc="F F F"
Bi       0.00000000       0.00000000       0.00000000       0.00000000       0.00000000       0.25059563
Bi       0.00000000       0.00000000       5.16565657       0.00000000       0.00000000      -0.25059563
2
Properties=species:S:1:pos:R:3:forces:R:3 energy=-2.703453980193428 pbc="F F F"
Bi       0.00000000       0.00000000       0.00000000       0.00000000       0.00000000       0.24219562
Bi       0.00000000       0.00000000       5.22525253       0.00000000       0.00000000      -0.24219562
2
Properties=species:S:1:pos:R:3:forces:R:3 energy=-2.689340959174184 pbc="F F F"
Bi       0.00000000       0.00000000       0.00000000       0.00000000       0.00000000       0.23086660
Bi       0.00000000       0.00000000       5.28484848       0.00000000       0.00000000      -0.23086660
2
Properties=species:S:1:pos:R:3:forces:R:3 energy=-2.676021021659114 pbc="F F F"
Bi       0.00000000       0.00000000       0.00000000       0.00000000       0.00000000       0.21529597
Bi       0.00000000       0.00000000       5.34444444       0.00000000       0.00000000      -0.21529597
2
Properties=species:S:1:pos:R:3:forces:R:3 energy=-2.6637751210332743 pbc="F F F"
Bi       0.00000000       0.00000000       0.00000000       0.00000000       0.00000000       0.19487871
Bi       0.00000000       0.00000000       5.40404040       0.00000000       0.00000000      -0.19487871
2
Properties=species:S:1:pos:R:3:forces:R:3 energy=-2.652883846382176 pbc="F F F"
Bi       0.00000000       0.00000000       0.00000000       0.00000000       0.00000000       0.16992904
Bi       0.00000000       0.00000000       5.46363636       0.00000000       0.00000000      -0.16992904
2
Properties=species:S:1:pos:R:3:forces:R:3 energy=-2.643590229193442 pbc="F F F"
Bi       0.00000000       0.00000000       0.00000000       0.00000000       0.00000000       0.14167449
Bi       0.00000000       0.00000000       5.52323232       0.00000000       0.00000000      -0.14167449
2
Properties=species:S:1:pos:R:3:forces:R:3 energy=-2.6360258668594208 pbc="F F F"
Bi       0.00000000       0.00000000       0.00000000       0.00000000       0.00000000       0.11206421
Bi       0.00000000       0.00000000       5.58282828       0.00000000       0.00000000      -0.11206421
2
Properties=species:S:1:pos:R:3:forces:R:3 energy=-2.630211397930431 pbc="F F F"
Bi       0.00000000       0.00000000       0.00000000       0.00000000       0.00000000       0.08344460
Bi       0.00000000       0.00000000       5.64242424       0.00000000       0.00000000      -0.08344460
2
Properties=species:S:1:pos:R:3:forces:R:3 energy=-2.626015536884757 pbc="F F F"
Bi       0.00000000       0.00000000       0.00000000       0.00000000       0.00000000       0.05806334
Bi       0.00000000       0.00000000       5.70202020       0.00000000       0.00000000      -0.05806334
2
Properties=species:S:1:pos:R:3:forces:R:3 energy=-2.623189929174617 pbc="F F F"
Bi       0.00000000       0.00000000       0.00000000       0.00000000       0.00000000       0.03772515
Bi       0.00000000       0.00000000       5.76161616       0.00000000       0.00000000      -0.03772515
2
Properties=species:S:1:pos:R:3:forces:R:3 energy=-2.6214005971360286 pbc="F F F"
Bi       0.00000000       0.00000000       0.00000000       0.00000000       0.00000000       0.02335875
Bi       0.00000000       0.00000000       5.82121212       0.00000000       0.00000000      -0.02335875
2
Properties=species:S:1:pos:R:3:forces:R:3 energy=-2.6202890765153684 pbc="F F F"
Bi       0.00000000       0.00000000       0.00000000       0.00000000       0.00000000       0.01490293
Bi       0.00000000       0.00000000       5.88080808       0.00000000       0.00000000      -0.01490293
2
Properties=species:S:1:pos:R:3:forces:R:3 energy=-2.619530568427915 pbc="F F F"
Bi       0.00000000       0.00000000       0.00000000       0.00000000       0.00000000       0.01119286
Bi       0.00000000       0.00000000       5.94040404       0.00000000       0.00000000      -0.01119286
2
Properties=species:S:1:pos:R:3:forces:R:3 energy=-2.6188997793156386 pbc="F F F"
Bi       0.00000000       0.00000000       0.00000000       0.00000000       0.00000000       0.01019728
Bi       0.00000000       0.00000000       6.00000000       0.00000000       0.00000000      -0.01019728
