2
Properties=species:S:1:pos:R:3:forces:R:3 energy=-16662537.049226254 pbc="F F F"
Bi       0.00000000       0.00000000       0.00000000       0.00000000       0.00000000 191834784.00000000
Bi       0.00000000       0.00000000       0.18000000       0.00000000       0.00000000 -191834784.00000000
2
Properties=species:S:1:pos:R:3:forces:R:3 energy=-7362911.549226255 pbc="F F F"
Bi       0.00000000       0.00000000       0.00000000       0.00000000       0.00000000 121411320.00000000
Bi       0.00000000       0.00000000       0.23878788       0.00000000       0.00000000 -121411320.00000000
2
Properties=species:S:1:pos:R:3:forces:R:3 energy=-2319798.299226252 pbc="F F F"
Bi       0.00000000       0.00000000       0.00000000       0.00000000       0.00000000 53734284.00000000
Bi       0.00000000       0.00000000       0.29757576       0.00000000       0.00000000 -53734284.00000000
2
Properties=species:S:1:pos:R:3:forces:R:3 energy=-461728.0179762519 pbc="F F F"
Bi       0.00000000       0.00000000       0.00000000       0.00000000       0.00000000 14681292.00000000
Bi       0.00000000       0.00000000       0.35636364       0.00000000       0.00000000 -14681292.00000000
2
Properties=species:S:1:pos:R:3:forces:R:3 energy=-52084.85000749555 pbc="F F F"
Bi       0.00000000       0.00000000       0.00000000       0.00000000       0.00000000 2323139.25000000
Bi       0.00000000       0.00000000       0.41515152       0.00000000       0.00000000 -2323139.25000000
2
Properties=species:S:1:pos:R:3:forces:R:3 energy=-2462.9276442079695 pbc="F F F"
Bi       0.00000000       0.00000000       0.00000000       0.00000000       0.00000000  128405.53125000
Bi       0.00000000       0.00000000       0.47393939       0.00000000       0.00000000 -128405.53125000
2
Properties=species:S:1:pos:R:3:forces:R:3 energy=-520.4073805170876 pbc="F F F"
Bi       0.00000000       0.00000000       0.00000000       0.00000000       0.00000000    5809.88525391
Bi       0.00000000       0.00000000       0.53272727       0.00000000       0.00000000   -5809.88525391
2
Properties=species:S:1:pos:R:3:forces:R:3 energy=-98.26757946635445 pbc="F F F"
Bi       0.00000000       0.00000000       0.00000000       0.00000000       0.00000000    7894.26318359
Bi       0.00000000       0.00000000       0.59151515       0.00000000       0.00000000   -7894.26318359
2
Properties=species:S:1:pos:R:3:forces:R:3 energy=387.8899217986982 pbc="F F F"
Bi       0.00000000       0.00000000       0.00000000       0.00000000       0.00000000    2142.55786133
Bi       0.00000000       0.00000000       0.65030303       0.00000000       0.00000000   -2142.55786133
2
Properties=species:S:1:pos:R:3:forces:R:3 energy=223.9371478300422 pbc="F F F"
Bi       0.00000000       0.00000000       0.00000000       0.00000000       0.00000000   -4544.49609375
Bi       0.00000000       0.00000000       0.70909091       0.00000000       0.00000000    4544.49609375
2
Properties=species:S:1:pos:R:3:forces:R:3 energy=111.91367992333784 pbc="F F F"
Bi       0.00000000       0.00000000       0.00000000       0.00000000       0.00000000    -308.14938354
Bi       0.00000000       0.00000000       0.76787879       0.00000000       0.00000000     308.14938354
2
Properties=species:S:1:pos:R:3:forces:R:3 energy=91.22995663835755 pbc="F F F"
Bi       0.00000000       0.00000000       0.00000000       0.00000000       0.00000000    -117.58018494
Bi       0.00000000       0.00000000       0.82666667       0.00000000       0.00000000     117.58018494
2
Properties=species:S:1:pos:R:3:forces:R:3 energy=89.41776968111999 pbc="F F F"
Bi       0.00000000       0.00000000       0.00000000       0.00000000       0.00000000      -4.47430325
Bi       0.00000000       0.00000000       0.88545455       0.00000000       0.00000000       4.47430325
2
Properties=species:S:1:pos:R:3:forces:R:3 energy=85.94242822003415 pbc="F F F"
Bi       0.00000000       0.00000000       0.00000000       0.00000000       0.00000000    -107.74277496
Bi       0.00000000       0.00000000       0.94424242       0.00000000       0.00000000     107.74277496
2
Properties=species:S:1:pos:R:3:forces:R:3 energy=52.363876433274605 pbc="F F F"
Bi       0.00000000       0.00000000       0.00000000       0.00000000       0.00000000    -690.07116699
Bi       0.00000000       0.00000000       1.00303030       0.00000000       0.00000000     690.07116699
2
Properties=species:S:1:pos:R:3:forces:R:3 energy=20.153084512663842 pbc="F F F"
Bi       0.00000000       0.00000000       0.00000000       0.00000000       0.00000000    -243.08293152
Bi       0.00000000       0.00000000       1.06181818       0.00000000       0.00000000     243.08293152
2
Properties=species:S:1:pos:R:3:forces:R:3 energy=16.612636193841546 pbc="F F F"
Bi       0.00000000       0.00000000       0.00000000       0.00000000       0.00000000     121.14775085
Bi       0.00000000       0.00000000       1.12060606       0.00000000       0.00000000    -121.14775085
2
Properties=species:S:1:pos:R:3:forces:R:3 energy=30.67011331777007 pbc="F F F"
Bi       0.00000000       0.00000000       0.00000000       0.00000000       0.00000000     279.09201050
Bi       0.00000000       0.00000000       1.17939394       0.00000000       0.00000000    -279.09201050
2
Properties=species:S:1:pos:R:3:forces:R:3 energy=52.53439732281186 pbc="F F F"
Bi       0.00000000       0.00000000       0.00000000       0.00000000       0.00000000     284.78964233
Bi       0.00000000       0.00000000       1.23818182       0.00000000       0.00000000    -284.78964233
2
Properties=species:S:1:pos:R:3:forces:R:3 energy=61.871160580905105 pbc="F F F"
Bi       0.00000000       0.00000000       0.00000000       0.00000000       0.00000000      -6.87494707
Bi       0.00000000       0.00000000       1.29696970       0.00000000       0.00000000       6.87494707
2
Properties=species:S:1:pos:R:3:forces:R:3 energy=58.44406933370293 pbc="F F F"
Bi       0.00000000       0.00000000       0.00000000       0.00000000       0.00000000     -91.11381531
Bi       0.00000000       0.00000000       1.35575758       0.00000000       0.00000000      91.11381531
2
Properties=species:S:1:pos:R:3:forces:R:3 energy=51.4820665441659 pbc="F F F"
Bi       0.00000000       0.00000000       0.00000000       0.00000000       0.00000000    -128.67543030
Bi       0.00000000       0.00000000       1.41454545       0.00000000       0.00000000     128.67543030
2
Properties=species:S:1:pos:R:3:forces:R:3 energy=44.788970084862555 pbc="F F F"
Bi       0.00000000       0.00000000       0.00000000       0.00000000       0.00000000     -97.93510437
Bi       0.00000000       0.00000000       1.47333333       0.00000000       0.00000000      97.93510437
2
Properties=species:S:1:pos:R:3:forces:R:3 energy=40.44927561743588 pbc="F F F"
Bi       0.00000000       0.00000000       0.00000000       0.00000000       0.00000000     -54.93947983
Bi       0.00000000       0.00000000       1.53212121       0.00000000       0.00000000      54.93947983
2
Properties=species:S:1:pos:R:3:forces:R:3 energy=37.331322848354674 pbc="F F F"
Bi       0.00000000       0.00000000       0.00000000       0.00000000       0.00000000     -56.35955811
Bi       0.00000000       0.00000000       1.59090909       0.00000000       0.00000000      56.35955811
2
Properties=species:S:1:pos:R:3:forces:R:3 energy=33.380554138884904 pbc="F F F"
Bi       0.00000000       0.00000000       0.00000000       0.00000000       0.00000000     -77.89933777
Bi       0.00000000       0.00000000       1.64969697       0.00000000       0.00000000      77.89933777
2
Properties=species:S:1:pos:R:3:forces:R:3 energy=28.099634245135935 pbc="F F F"
Bi       0.00000000       0.00000000       0.00000000       0.00000000       0.00000000    -100.31544495
Bi       0.00000000       0.00000000       1.70848485       0.00000000       0.00000000     100.31544495
2
Properties=species:S:1:pos:R:3:forces:R:3 energy=22.168672422406633 pbc="F F F"
Bi       0.00000000       0.00000000       0.00000000       0.00000000       0.00000000     -97.71448517
Bi       0.00000000       0.00000000       1.76727273       0.00000000       0.00000000      97.71448517
2
Properties=species:S:1:pos:R:3:forces:R:3 energy=16.670856011555145 pbc="F F F"
Bi       0.00000000       0.00000000       0.00000000       0.00000000       0.00000000     -88.85916901
Bi       0.00000000       0.00000000       1.82606061       0.00000000       0.00000000      88.85916901
2
Properties=species:S:1:pos:R:3:forces:R:3 energy=11.925587995555437 pbc="F F F"
Bi       0.00000000       0.00000000       0.00000000       0.00000000       0.00000000     -72.17027283
Bi       0.00000000       0.00000000       1.88484848       0.00000000       0.00000000      72.17027283
2
Properties=species:S:1:pos:R:3:forces:R:3 energy=8.151878084268139 pbc="F F F"
Bi       0.00000000       0.00000000       0.00000000       0.00000000       0.00000000     -56.60764313
Bi       0.00000000       0.00000000       1.94363636       0.00000000       0.00000000      56.60764313
2
Properties=species:S:1:pos:R:3:forces:R:3 energy=5.230483958001833 pbc="F F F"
Bi       0.00000000       0.00000000       0.00000000       0.00000000       0.00000000     -43.20650101
Bi       0.00000000       0.00000000       2.00242424       0.00000000       0.00000000      43.20650101
2
Properties=species:S:1:pos:R:3:forces:R:3 energy=3.0125050238486915 pbc="F F F"
Bi       0.00000000       0.00000000       0.00000000       0.00000000       0.00000000     -32.77918243
Bi       0.00000000       0.00000000       2.06121212       0.00000000       0.00000000      32.77918243
2
Properties=species:S:1:pos:R:3:forces:R:3 energy=1.319786757755525 pbc="F F F"
Bi       0.00000000       0.00000000       0.00000000       0.00000000       0.00000000     -25.24624062
Bi       0.00000000       0.00000000       2.12000000       0.00000000       0.00000000      25.24624062
2
Properties=species:S:1:pos:R:3:forces:R:3 energy=-0.005832491612204838 pbc="F F F"
Bi       0.00000000       0.00000000       0.00000000       0.00000000       0.00000000     -20.18963242
Bi       0.00000000       0.00000000       2.17878788       0.00000000       0.00000000      20.18963242
2
Properties=species:S:1:pos:R:3:forces:R:3 energy=-1.0708757026865006 pbc="F F F"
Bi       0.00000000       0.00000000       0.00000000       0.00000000       0.00000000     -16.08752060
Bi       0.00000000       0.00000000       2.23757576       0.00000000       0.00000000      16.08752060
2
Properties=species:S:1:pos:R:3:forces:R:3 energy=-1.912079750443799 pbc="F F F"
Bi       0.00000000       0.00000000       0.00000000       0.00000000       0.00000000     -12.72594643
Bi       0.00000000       0.00000000       2.29636364       0.00000000       0.00000000      12.72594643
2
Properties=species:S:1:pos:R:3:forces:R:3 energy=-2.588400147559905 pbc="F F F"
Bi       0.00000000       0.00000000       0.00000000       0.00000000       0.00000000     -10.41737175
Bi       0.00000000       0.00000000       2.35515152       0.00000000       0.00000000      10.41737175
2
Properties=species:S:1:pos:R:3:forces:R:3 energy=-3.145681508452495 pbc="F F F"
Bi       0.00000000       0.00000000       0.00000000       0.00000000       0.00000000      -8.56364059
Bi       0.00000000       0.00000000       2.41393939       0.00000000       0.00000000       8.56364059
2
Properties=species:S:1:pos:R:3:forces:R:3 energy=-3.5966324995577517 pbc="F F F"
Bi       0.00000000       0.00000000       0.00000000       0.00000000       0.00000000      -6.80208254
Bi       0.00000000       0.00000000       2.47272727       0.00000000       0.00000000       6.80208254
2
Properties=species:S:1:pos:R:3:forces:R:3 energy=-3.9488757566512662 pbc="F F F"
Bi       0.00000000       0.00000000       0.00000000       0.00000000       0.00000000      -5.20484829
Bi       0.00000000       0.00000000       2.53151515       0.00000000       0.00000000       5.20484829
2
Properties=species:S:1:pos:R:3:forces:R:3 energy=-4.211234578801697 pbc="F F F"
Bi       0.00000000       0.00000000       0.00000000       0.00000000       0.00000000      -3.74938083
Bi       0.00000000       0.00000000       2.59030303       0.00000000       0.00000000       3.74938083
2
Properties=species:S:1:pos:R:3:forces:R:3 energy=-4.393941497110152 pbc="F F F"
Bi       0.00000000       0.00000000       0.00000000       0.00000000       0.00000000      -2.50624418
Bi       0.00000000       0.00000000       2.64909091       0.00000000       0.00000000       2.50624418
2
Properties=species:S:1:pos:R:3:forces:R:3 energy=-4.51031942430005 pbc="F F F"
Bi       0.00000000       0.00000000       0.00000000       0.00000000       0.00000000      -1.48571336
Bi       0.00000000       0.00000000       2.70787879       0.00000000       0.00000000       1.48571336
2
Properties=species:S:1:pos:R:3:forces:R:3 energy=-4.572059002481486 pbc="F F F"
Bi       0.00000000       0.00000000       0.00000000       0.00000000       0.00000000      -0.64321041
Bi       0.00000000       0.00000000       2.76666667       0.00000000       0.00000000       0.64321041
2
Properties=species:S:1:pos:R:3:forces:R:3 energy=-4.589496637228321 pbc="F F F"
Bi       0.00000000       0.00000000       0.00000000       0.00000000       0.00000000       0.01855347
Bi       0.00000000       0.00000000       2.82545455       0.00000000       0.00000000      -0.01855347
2
Properties=species:S:1:pos:R:3:forces:R:3 energy=-4.573453693343423 pbc="F F F"
Bi       0.00000000       0.00000000       0.00000000       0.00000000       0.00000000       0.49920580
Bi       0.00000000       0.00000000       2.88424242       0.00000000       0.00000000      -0.49920580
2
Properties=species:S:1:pos:R:3:forces:R:3 energy=-4.533661495389474 pbc="F F F"
Bi       0.00000000       0.00000000       0.00000000       0.00000000       0.00000000       0.83431393
Bi       0.00000000       0.00000000       2.94303030       0.00000000       0.00000000      -0.83431393
2
Properties=species:S:1:pos:R:3:forces:R:3 energy=-4.477274078928175 pbc="F F F"
Bi       0.00000000       0.00000000       0.00000000       0.00000000       0.00000000       1.07121122
Bi       0.00000000       0.00000000       3.00181818       0.00000000       0.00000000      -1.07121122
2
Properties=species:S:1:pos:R:3:forces:R:3 energy=-4.40893163203705 pbc="F F F"
Bi       0.00000000       0.00000000       0.00000000       0.00000000       0.00000000       1.24507642
Bi       0.00000000       0.00000000       3.06060606       0.00000000       0.00000000      -1.24507642
2
Properties=species:S:1:pos:R:3:forces:R:3 energy=-4.331838321517198 pbc="F F F"
Bi       0.00000000       0.00000000       0.00000000       0.00000000       0.00000000       1.36999941
Bi       0.00000000       0.00000000       3.11939394       0.00000000       0.00000000      -1.36999941
2
Properties=species:S:1:pos:R:3:forces:R:3 energy=-4.248688863519412 pbc="F F F"
Bi       0.00000000       0.00000000       0.00000000       0.00000000       0.00000000       1.45238400
Bi       0.00000000       0.00000000       3.17818182       0.00000000       0.00000000      -1.45238400
2
Properties=species:S:1:pos:R:3:forces:R:3 energy=-4.161742510835425 pbc="F F F"
Bi       0.00000000       0.00000000       0.00000000       0.00000000       0.00000000       1.50046515
Bi       0.00000000       0.00000000       3.23696970       0.00000000       0.00000000      -1.50046515
2
Properties=species:S:1:pos:R:3:forces:R:3 energy=-4.0728442854947975 pbc="F F F"
Bi       0.00000000       0.00000000       0.00000000       0.00000000       0.00000000       1.51907980
Bi       0.00000000       0.00000000       3.29575758       0.00000000       0.00000000      -1.51907980
2
Properties=species:S:1:pos:R:3:forces:R:3 energy=-3.9836948399262186 pbc="F F F"
Bi       0.00000000       0.00000000       0.00000000       0.00000000       0.00000000       1.50922167
Bi       0.00000000       0.00000000       3.35454545       0.00000000       0.00000000      -1.50922167
2
Properties=species:S:1:pos:R:3:forces:R:3 energy=-3.8959080495556657 pbc="F F F"
Bi       0.00000000       0.00000000       0.00000000       0.00000000       0.00000000       1.47349417
Bi       0.00000000       0.00000000       3.41333333       0.00000000       0.00000000      -1.47349417
2
Properties=species:S:1:pos:R:3:forces:R:3 energy=-3.8108197514125766 pbc="F F F"
Bi       0.00000000       0.00000000       0.00000000       0.00000000       0.00000000       1.41880143
Bi       0.00000000       0.00000000       3.47212121       0.00000000       0.00000000      -1.41880143
2
Properties=species:S:1:pos:R:3:forces:R:3 energy=-3.7292849775910217 pbc="F F F"
Bi       0.00000000       0.00000000       0.00000000       0.00000000       0.00000000       1.35409558
Bi       0.00000000       0.00000000       3.53090909       0.00000000       0.00000000      -1.35409558
2
Properties=species:S:1:pos:R:3:forces:R:3 energy=-3.6516717319504988 pbc="F F F"
Bi       0.00000000       0.00000000       0.00000000       0.00000000       0.00000000       1.28619468
Bi       0.00000000       0.00000000       3.58969697       0.00000000       0.00000000      -1.28619468
2
Properties=species:S:1:pos:R:3:forces:R:3 energy=-3.578066460372888 pbc="F F F"
Bi       0.00000000       0.00000000       0.00000000       0.00000000       0.00000000       1.21784496
Bi       0.00000000       0.00000000       3.64848485       0.00000000       0.00000000      -1.21784496
2
Properties=species:S:1:pos:R:3:forces:R:3 energy=-3.508493177021132 pbc="F F F"
Bi       0.00000000       0.00000000       0.00000000       0.00000000       0.00000000       1.14897704
Bi       0.00000000       0.00000000       3.70727273       0.00000000       0.00000000      -1.14897704
2
Properties=species:S:1:pos:R:3:forces:R:3 energy=-3.4429935831281755 pbc="F F F"
Bi       0.00000000       0.00000000       0.00000000       0.00000000       0.00000000       1.07917297
Bi       0.00000000       0.00000000       3.76606061       0.00000000       0.00000000      -1.07917297
2
Properties=species:S:1:pos:R:3:forces:R:3 energy=-3.381612845302698 pbc="F F F"
Bi       0.00000000       0.00000000       0.00000000       0.00000000       0.00000000       1.00914299
Bi       0.00000000       0.00000000       3.82484848       0.00000000       0.00000000      -1.00914299
2
Properties=species:S:1:pos:R:3:forces:R:3 energy=-3.3243157588394205 pbc="F F F"
Bi       0.00000000       0.00000000       0.00000000       0.00000000       0.00000000       0.94046736
Bi       0.00000000       0.00000000       3.88363636       0.00000000       0.00000000      -0.94046736
2
Properties=species:S:1:pos:R:3:forces:R:3 energy=-3.2709830248233405 pbc="F F F"
Bi       0.00000000       0.00000000       0.00000000       0.00000000       0.00000000       0.87450182
Bi       0.00000000       0.00000000       3.94242424       0.00000000       0.00000000      -0.87450182
2
Properties=species:S:1:pos:R:3:forces:R:3 energy=-3.2214347838443103 pbc="F F F"
Bi       0.00000000       0.00000000       0.00000000       0.00000000       0.00000000       0.81166822
Bi       0.00000000       0.00000000       4.00121212       0.00000000       0.00000000      -0.81166822
2
Properties=species:S:1:pos:R:3:forces:R:3 energy=-3.1754951515640917 pbc="F F F"
Bi       0.00000000       0.00000000       0.00000000       0.00000000       0.00000000       0.75163519
Bi       0.00000000       0.00000000       4.06000000       0.00000000       0.00000000      -0.75163519
2
Properties=species:S:1:pos:R:3:forces:R:3 energy=-3.1330133254322834 pbc="F F F"
Bi       0.00000000       0.00000000       0.00000000       0.00000000       0.00000000       0.69401592
Bi       0.00000000       0.00000000       4.11878788       0.00000000       0.00000000      -0.69401592
2
Properties=species:S:1:pos:R:3:forces:R:3 energy=-3.0938454623785563 pbc="F F F"
Bi       0.00000000       0.00000000       0.00000000       0.00000000       0.00000000       0.63891023
Bi       0.00000000       0.00000000       4.17757576       0.00000000       0.00000000      -0.63891023
2
Properties=species:S:1:pos:R:3:forces:R:3 energy=-3.057831159240683 pbc="F F F"
Bi       0.00000000       0.00000000       0.00000000       0.00000000       0.00000000       0.58700264
Bi       0.00000000       0.00000000       4.23636364       0.00000000       0.00000000      -0.58700264
2
Properties=species:S:1:pos:R:3:forces:R:3 energy=-3.0247487559526376 pbc="F F F"
Bi       0.00000000       0.00000000       0.00000000       0.00000000       0.00000000       0.53928995
Bi       0.00000000       0.00000000       4.29515152       0.00000000       0.00000000      -0.53928995
2
Properties=species:S:1:pos:R:3:forces:R:3 energy=-2.994322023104178 pbc="F F F"
Bi       0.00000000       0.00000000       0.00000000       0.00000000       0.00000000       0.49670255
Bi       0.00000000       0.00000000       4.35393939       0.00000000       0.00000000      -0.49670255
2
Properties=species:S:1:pos:R:3:forces:R:3 energy=-2.966236212013379 pbc="F F F"
Bi       0.00000000       0.00000000       0.00000000       0.00000000       0.00000000       0.45977244
Bi       0.00000000       0.00000000       4.41272727       0.00000000       0.00000000      -0.45977244
2
Properties=species:S:1:pos:R:3:forces:R:3 energy=-2.9401542061694723 pbc="F F F"
Bi       0.00000000       0.00000000       0.00000000       0.00000000       0.00000000       0.42845199
Bi       0.00000000       0.00000000       4.47151515       0.00000000       0.00000000      -0.42845199
2
Properties=species:S:1:pos:R:3:forces:R:3 energy=-2.9157638683275993 pbc="F F F"
Bi       0.00000000       0.00000000       0.00000000       0.00000000       0.00000000       0.40211135
Bi       0.00000000       0.00000000       4.53030303       0.00000000       0.00000000      -0.40211135
2
Properties=species:S:1:pos:R:3:forces:R:3 energy=-2.8927990815323956 pbc="F F F"
Bi       0.00000000       0.00000000       0.00000000       0.00000000       0.00000000       0.37969232
Bi       0.00000000       0.00000000       4.58909091       0.00000000       0.00000000      -0.37969232
2
Properties=species:S:1:pos:R:3:forces:R:3 energy=-2.871069058764108 pbc="F F F"
Bi       0.00000000       0.00000000       0.00000000       0.00000000       0.00000000       0.36000845
Bi       0.00000000       0.00000000       4.64787879       0.00000000       0.00000000      -0.36000845
2
Properties=species:S:1:pos:R:3:forces:R:3 energy=-2.8504363038911875 pbc="F F F"
Bi       0.00000000       0.00000000       0.00000000       0.00000000       0.00000000       0.34204149
Bi       0.00000000       0.00000000       4.70666667       0.00000000       0.00000000      -0.34204149
2
Properties=species:S:1:pos:R:3:forces:R:3 energy=-2.8308292288480463 pbc="F F F"
Bi       0.00000000       0.00000000       0.00000000       0.00000000       0.00000000       0.32520014
Bi       0.00000000       0.00000000       4.76545455       0.00000000       0.00000000      -0.32520014
2
Properties=species:S:1:pos:R:3:forces:R:3 energy=-2.812180101448052 pbc="F F F"
Bi       0.00000000       0.00000000       0.00000000       0.00000000       0.00000000       0.30939999
Bi       0.00000000       0.00000000       4.82424242       0.00000000       0.00000000      -0.30939999
2
Properties=species:S:1:pos:R:3:forces:R:3 energy=-2.794426441048955 pbc="F F F"
Bi       0.00000000       0.00000000       0.00000000       0.00000000       0.00000000       0.29495978
Bi       0.00000000       0.00000000       4.88303030       0.00000000       0.00000000      -0.29495978
2
Properties=species:S:1:pos:R:3:forces:R:3 energy=-2.7774646164609056 pbc="F F F"
Bi       0.00000000       0.00000000       0.00000000       0.00000000       0.00000000       0.28235674
Bi       0.00000000       0.00000000       4.94181818       0.00000000       0.00000000      -0.28235674
2
Properties=species:S:1:pos:R:3:forces:R:3 energy=-2.761185128728335 pbc="F F F"
Bi       0.00000000       0.00000000       0.00000000       0.00000000       0.00000000       0.27189925
Bi       0.00000000       0.00000000       5.00060606       0.00000000       0.00000000      -0.27189925
2
Properties=species:S:1:pos:R:3:forces:R:3 energy=-2.745454953899905 pbc="F F F"
Bi       0.00000000       0.00000000       0.00000000       0.00000000       0.00000000       0.26344907
Bi       0.00000000       0.00000000       5.05939394       0.00000000       0.00000000      -0.26344907
2
Properties=species:S:1:pos:R:3:forces:R:3 energy=-2.730183691928877 pbc="F F F"
Bi       0.00000000       0.00000000       0.00000000       0.00000000       0.00000000       0.25628698
Bi       0.00000000       0.00000000       5.11818182       0.00000000       0.00000000      -0.25628698
2
Properties=species:S:1:pos:R:3:forces:R:3 energy=-2.7153226050792436 pbc="F F F"
Bi       0.00000000       0.00000000       0.00000000       0.00000000       0.00000000       0.24914965
Bi       0.00000000       0.00000000       5.17696970       0.00000000       0.00000000      -0.24914965
2
Properties=species:S:1:pos:R:3:forces:R:3 energy=-2.7009194557828278 pbc="F F F"
Bi       0.00000000       0.00000000       0.00000000       0.00000000       0.00000000       0.24045573
Bi       0.00000000       0.00000000       5.23575758       0.00000000       0.00000000      -0.24045573
2
Properties=species:S:1:pos:R:3:forces:R:3 energy=-2.687112716485213 pbc="F F F"
Bi       0.00000000       0.00000000       0.00000000       0.00000000       0.00000000       0.22864643
Bi       0.00000000       0.00000000       5.29454545       0.00000000       0.00000000      -0.22864643
2
Properties=species:S:1:pos:R:3:forces:R:3 energy=-2.674121573488441 pbc="F F F"
Bi       0.00000000       0.00000000       0.00000000       0.00000000       0.00000000       0.21255849
Bi       0.00000000       0.00000000       5.35333333       0.00000000       0.00000000      -0.21255849
2
Properties=species:S:1:pos:R:3:forces:R:3 energy=-2.6622135194472754 pbc="F F F"
Bi       0.00000000       0.00000000       0.00000000       0.00000000       0.00000000       0.19174388
Bi       0.00000000       0.00000000       5.41212121       0.00000000       0.00000000      -0.19174388
2
Properties=species:S:1:pos:R:3:forces:R:3 energy=-2.65165995049269 pbc="F F F"
Bi       0.00000000       0.00000000       0.00000000       0.00000000       0.00000000       0.16662423
Bi       0.00000000       0.00000000       5.47090909       0.00000000       0.00000000      -0.16662423
2
Properties=species:S:1:pos:R:3:forces:R:3 energy=-2.6426828159070386 pbc="F F F"
Bi       0.00000000       0.00000000       0.00000000       0.00000000       0.00000000       0.13848881
Bi       0.00000000       0.00000000       5.52969697       0.00000000       0.00000000      -0.13848881
2
Properties=species:S:1:pos:R:3:forces:R:3 energy=-2.6353988630225893 pbc="F F F"
Bi       0.00000000       0.00000000       0.00000000       0.00000000       0.00000000       0.10926688
Bi       0.00000000       0.00000000       5.58848485       0.00000000       0.00000000      -0.10926688
2
Properties=species:S:1:pos:R:3:forces:R:3 energy=-2.629813897752602 pbc="F F F"
Bi       0.00000000       0.00000000       0.00000000       0.00000000       0.00000000       0.08123202
Bi       0.00000000       0.00000000       5.64727273       0.00000000       0.00000000      -0.08123202
2
Properties=species:S:1:pos:R:3:forces:R:3 energy=-2.6257846724647176 pbc="F F F"
Bi       0.00000000       0.00000000       0.00000000       0.00000000       0.00000000       0.05651533
Bi       0.00000000       0.00000000       5.70606061       0.00000000       0.00000000      -0.05651533
2
Properties=species:S:1:pos:R:3:forces:R:3 energy=-2.623068049309496 pbc="F F F"
Bi       0.00000000       0.00000000       0.00000000       0.00000000       0.00000000       0.03677712
Bi       0.00000000       0.00000000       5.76484848       0.00000000       0.00000000      -0.03677712
2
Properties=species:S:1:pos:R:3:forces:R:3 energy=-2.621342467396001 pbc="F F F"
Bi       0.00000000       0.00000000       0.00000000       0.00000000       0.00000000       0.02289835
Bi       0.00000000       0.00000000       5.82363636       0.00000000       0.00000000      -0.02289835
2
Properties=species:S:1:pos:R:3:forces:R:3 energy=-2.6202647030446933 pbc="F F F"
Bi       0.00000000       0.00000000       0.00000000       0.00000000       0.00000000       0.01474215
Bi       0.00000000       0.00000000       5.88242424       0.00000000       0.00000000      -0.01474215
2
Properties=species:S:1:pos:R:3:forces:R:3 energy=-2.619520475506777 pbc="F F F"
Bi       0.00000000       0.00000000       0.00000000       0.00000000       0.00000000       0.01116699
Bi       0.00000000       0.00000000       5.94121212       0.00000000       0.00000000      -0.01116699
2
Properties=species:S:1:pos:R:3:forces:R:3 energy=-2.6188988264332775 pbc="F F F"
Bi       0.00000000       0.00000000       0.00000000       0.00000000       0.00000000       0.01019728
Bi       0.00000000       0.00000000       6.00000000       0.00000000       0.00000000      -0.01019728
