2
Properties=species:S:1:pos:R:3:forces:R:3 energy=53810007.964462146 pbc="F F F"
Br       0.00000000       0.00000000       0.00000000       0.00000000       0.00000000 -540147072.00000000
Br       0.00000000       0.00000000       0.18000000       0.00000000       0.00000000 540147072.00000000
2
Properties=species:S:1:pos:R:3:forces:R:3 energy=26723251.96446215 pbc="F F F"
Br       0.00000000       0.00000000       0.00000000       0.00000000       0.00000000 -370707264.00000000
Br       0.00000000       0.00000000       0.23878788       0.00000000       0.00000000 370707264.00000000
2
Properties=species:S:1:pos:R:3:forces:R:3 energy=10380853.964462148 pbc="F F F"
Br       0.00000000       0.00000000       0.00000000       0.00000000       0.00000000 -191489616.00000000
Br       0.00000000       0.00000000       0.29757576       0.00000000       0.00000000 191489616.00000000
2
Properties=species:S:1:pos:R:3:forces:R:3 energy=3003426.2144621545 pbc="F F F"
Br       0.00000000       0.00000000       0.00000000       0.00000000       0.00000000 -71039232.00000000
Br       0.00000000       0.00000000       0.35636364       0.00000000       0.00000000 71039232.00000000
2
Properties=species:S:1:pos:R:3:forces:R:3 energy=638205.4644621674 pbc="F F F"
Br       0.00000000       0.00000000       0.00000000       0.00000000       0.00000000 -18955798.00000000
Br       0.00000000       0.00000000       0.41515152       0.00000000       0.00000000 18955798.00000000
2
Properties=species:S:1:pos:R:3:forces:R:3 energy=98393.23789968954 pbc="F F F"
Br       0.00000000       0.00000000       0.00000000       0.00000000       0.00000000 -2993715.50000000
Br       0.00000000       0.00000000       0.47393939       0.00000000       0.00000000 2993715.50000000
2
Properties=species:S:1:pos:R:3:forces:R:3 energy=15659.312118483896 pbc="F F F"
Br       0.00000000       0.00000000       0.00000000       0.00000000       0.00000000 -505973.78125000
Br       0.00000000       0.00000000       0.53272727       0.00000000       0.00000000  505973.78125000
2
Properties=species:S:1:pos:R:3:forces:R:3 energy=2280.2020111412166 pbc="F F F"
Br       0.00000000       0.00000000       0.00000000       0.00000000       0.00000000  -73477.32031250
Br       0.00000000       0.00000000       0.59151515       0.00000000       0.00000000   73477.32031250
2
Properties=species:S:1:pos:R:3:forces:R:3 energy=254.22590653160142 pbc="F F F"
Br       0.00000000       0.00000000       0.00000000       0.00000000       0.00000000  -11704.33593750
Br       0.00000000       0.00000000       0.65030303       0.00000000       0.00000000   11704.33593750
2
Properties=species:S:1:pos:R:3:forces:R:3 energy=5.374327545041514 pbc="F F F"
Br       0.00000000       0.00000000       0.00000000       0.00000000       0.00000000    -822.35522461
Br       0.00000000       0.00000000       0.70909091       0.00000000       0.00000000     822.35522461
2
Properties=species:S:1:pos:R:3:forces:R:3 energy=20.573895167115086 pbc="F F F"
Br       0.00000000       0.00000000       0.00000000       0.00000000       0.00000000     295.30712891
Br       0.00000000       0.00000000       0.76787879       0.00000000       0.00000000    -295.30712891
2
Properties=species:S:1:pos:R:3:forces:R:3 energy=41.97273748119163 pbc="F F F"
Br       0.00000000       0.00000000       0.00000000       0.00000000       0.00000000     441.57376099
Br       0.00000000       0.00000000       0.82666667       0.00000000       0.00000000    -441.57376099
2
Properties=species:S:1:pos:R:3:forces:R:3 energy=63.640191899632136 pbc="F F F"
Br       0.00000000       0.00000000       0.00000000       0.00000000       0.00000000     273.85055542
Br       0.00000000       0.00000000       0.88545455       0.00000000       0.00000000    -273.85055542
2
Properties=species:S:1:pos:R:3:forces:R:3 energy=74.29493219184772 pbc="F F F"
Br       0.00000000       0.00000000       0.00000000       0.00000000       0.00000000      98.98335266
Br       0.00000000       0.00000000       0.94424242       0.00000000       0.00000000     -98.98335266
2
Properties=species:S:1:pos:R:3:forces:R:3 energy=75.41004574782498 pbc="F F F"
Br       0.00000000       0.00000000       0.00000000       0.00000000       0.00000000     -52.00838470
Br       0.00000000       0.00000000       1.00303030       0.00000000       0.00000000      52.00838470
2
Properties=species:S:1:pos:R:3:forces:R:3 energy=70.70068922410996 pbc="F F F"
Br       0.00000000       0.00000000       0.00000000       0.00000000       0.00000000     -92.63278961
Br       0.00000000       0.00000000       1.06181818       0.00000000       0.00000000      92.63278961
2
Properties=species:S:1:pos:R:3:forces:R:3 energy=63.49470544714666 pbc="F F F"
Br       0.00000000       0.00000000       0.00000000       0.00000000       0.00000000    -168.17613220
Br       0.00000000       0.00000000       1.12060606       0.00000000       0.00000000     168.17613220
2
Properties=species:S:1:pos:R:3:forces:R:3 energy=53.85223325871178 pbc="F F F"
Br       0.00000000       0.00000000       0.00000000       0.00000000       0.00000000    -126.22440338
Br       0.00000000       0.00000000       1.17939394       0.00000000       0.00000000     126.22440338
2
Properties=species:S:1:pos:R:3:forces:R:3 energy=48.344603850869845 pbc="F F F"
Br       0.00000000       0.00000000       0.00000000       0.00000000       0.00000000    -120.33312988
Br       0.00000000       0.00000000       1.23818182       0.00000000       0.00000000     120.33312988
2
Properties=species:S:1:pos:R:3:forces:R:3 energy=39.1756633946412 pbc="F F F"
Br       0.00000000       0.00000000       0.00000000       0.00000000       0.00000000    -170.95252991
Br       0.00000000       0.00000000       1.29696970       0.00000000       0.00000000     170.95252991
2
Properties=species:S:1:pos:R:3:forces:R:3 energy=30.3570927243042 pbc="F F F"
Br       0.00000000       0.00000000       0.00000000       0.00000000       0.00000000    -120.29692841
Br       0.00000000       0.00000000       1.35575758       0.00000000       0.00000000     120.29692841
2
Properties=species:S:1:pos:R:3:forces:R:3 energy=24.377020764897466 pbc="F F F"
Br       0.00000000       0.00000000       0.00000000       0.00000000       0.00000000     -90.50570679
Br       0.00000000       0.00000000       1.41454545       0.00000000       0.00000000      90.50570679
2
Properties=species:S:1:pos:R:3:forces:R:3 energy=19.254731115209662 pbc="F F F"
Br       0.00000000       0.00000000       0.00000000       0.00000000       0.00000000     -85.18048096
Br       0.00000000       0.00000000       1.47333333       0.00000000       0.00000000      85.18048096
2
Properties=species:S:1:pos:R:3:forces:R:3 energy=14.409066455214157 pbc="F F F"
Br       0.00000000       0.00000000       0.00000000       0.00000000       0.00000000     -78.37797546
Br       0.00000000       0.00000000       1.53212121       0.00000000       0.00000000      78.37797546
2
Properties=species:S:1:pos:R:3:forces:R:3 energy=10.204075172367823 pbc="F F F"
Br       0.00000000       0.00000000       0.00000000       0.00000000       0.00000000     -64.13911438
Br       0.00000000       0.00000000       1.59090909       0.00000000       0.00000000      64.13911438
2
Properties=species:S:1:pos:R:3:forces:R:3 energy=6.834280125840661 pbc="F F F"
Br       0.00000000       0.00000000       0.00000000       0.00000000       0.00000000     -50.72264099
Br       0.00000000       0.00000000       1.64969697       0.00000000       0.00000000      50.72264099
2
Properties=species:S:1:pos:R:3:forces:R:3 energy=4.2122184372423215 pbc="F F F"
Br       0.00000000       0.00000000       0.00000000       0.00000000       0.00000000     -38.75331116
Br       0.00000000       0.00000000       1.70848485       0.00000000       0.00000000      38.75331116
2
Properties=species:S:1:pos:R:3:forces:R:3 energy=2.244560795659745 pbc="F F F"
Br       0.00000000       0.00000000       0.00000000       0.00000000       0.00000000     -28.81679916
Br       0.00000000       0.00000000       1.76727273       0.00000000       0.00000000      28.81679916
2
Properties=species:S:1:pos:R:3:forces:R:3 energy=0.745156819649206 pbc="F F F"
Br       0.00000000       0.00000000       0.00000000       0.00000000       0.00000000     -22.55310440
Br       0.00000000       0.00000000       1.82606061       0.00000000       0.00000000      22.55310440
2
Properties=species:S:1:pos:R:3:forces:R:3 energy=-0.41590418491969333 pbc="F F F"
Br       0.00000000       0.00000000       0.00000000       0.00000000       0.00000000     -17.01396179
Br       0.00000000       0.00000000       1.88484848       0.00000000       0.00000000      17.01396179
2
Properties=species:S:1:pos:R:3:forces:R:3 energy=-1.2761346631574813 pbc="F F F"
Br       0.00000000       0.00000000       0.00000000       0.00000000       0.00000000     -12.47985840
Br       0.00000000       0.00000000       1.94363636       0.00000000       0.00000000      12.47985840
2
Properties=species:S:1:pos:R:3:forces:R:3 energy=-1.9038778252779611 pbc="F F F"
Br       0.00000000       0.00000000       0.00000000       0.00000000       0.00000000      -9.00731564
Br       0.00000000       0.00000000       2.00242424       0.00000000       0.00000000       9.00731564
2
Properties=species:S:1:pos:R:3:forces:R:3 energy=-2.349580159581169 pbc="F F F"
Br       0.00000000       0.00000000       0.00000000       0.00000000       0.00000000      -6.27832794
Br       0.00000000       0.00000000       2.06121212       0.00000000       0.00000000       6.27832794
2
Properties=species:S:1:pos:R:3:forces:R:3 energy=-2.6530326245170484 pbc="F F F"
Br       0.00000000       0.00000000       0.00000000       0.00000000       0.00000000      -4.11631060
Br       0.00000000       0.00000000       2.12000000       0.00000000       0.00000000       4.11631060
2
Properties=species:S:1:pos:R:3:forces:R:3 energy=-2.8428345054896704 pbc="F F F"
Br       0.00000000       0.00000000       0.00000000       0.00000000       0.00000000      -2.42027783
Br       0.00000000       0.00000000       2.17878788       0.00000000       0.00000000       2.42027783
2
Properties=species:S:1:pos:R:3:forces:R:3 energy=-2.944796894326208 pbc="F F F"
Br       0.00000000       0.00000000       0.00000000       0.00000000       0.00000000      -1.10259736
Br       0.00000000       0.00000000       2.23757576       0.00000000       0.00000000       1.10259736
2
Properties=species:S:1:pos:R:3:forces:R:3 energy=-2.979495818406547 pbc="F F F"
Br       0.00000000       0.00000000       0.00000000       0.00000000       0.00000000      -0.13314891
Br       0.00000000       0.00000000       2.29636364       0.00000000       0.00000000       0.13314891
2
Properties=species:S:1:pos:R:3:forces:R:3 energy=-2.9658690233476133 pbc="F F F"
Br       0.00000000       0.00000000       0.00000000       0.00000000       0.00000000       0.55385858
Br       0.00000000       0.00000000       2.35515152       0.00000000       0.00000000      -0.55385858
2
Properties=species:S:1:pos:R:3:forces:R:3 energy=-2.9189443176138723 pbc="F F F"
Br       0.00000000       0.00000000       0.00000000       0.00000000       0.00000000       1.01353621
Br       0.00000000       0.00000000       2.41393939       0.00000000       0.00000000      -1.01353621
2
Properties=species:S:1:pos:R:3:forces:R:3 energy=-2.8488779955417654 pbc="F F F"
Br       0.00000000       0.00000000       0.00000000       0.00000000       0.00000000       1.35719347
Br       0.00000000       0.00000000       2.47272727       0.00000000       0.00000000      -1.35719347
2
Properties=species:S:1:pos:R:3:forces:R:3 energy=-2.7614019101893956 pbc="F F F"
Br       0.00000000       0.00000000       0.00000000       0.00000000       0.00000000       1.59295976
Br       0.00000000       0.00000000       2.53151515       0.00000000       0.00000000      -1.59295976
2
Properties=species:S:1:pos:R:3:forces:R:3 energy=-2.6653204378504194 pbc="F F F"
Br       0.00000000       0.00000000       0.00000000       0.00000000       0.00000000       1.64315367
Br       0.00000000       0.00000000       2.59030303       0.00000000       0.00000000      -1.64315367
2
Properties=species:S:1:pos:R:3:forces:R:3 energy=-2.571494319062984 pbc="F F F"
Br       0.00000000       0.00000000       0.00000000       0.00000000       0.00000000       1.52713001
Br       0.00000000       0.00000000       2.64909091       0.00000000       0.00000000      -1.52713001
2
Properties=species:S:1:pos:R:3:forces:R:3 energy=-2.487533986225337 pbc="F F F"
Br       0.00000000       0.00000000       0.00000000       0.00000000       0.00000000       1.32056940
Br       0.00000000       0.00000000       2.70787879       0.00000000       0.00000000      -1.32056940
2
Properties=species:S:1:pos:R:3:forces:R:3 energy=-2.4166217386331135 pbc="F F F"
Br       0.00000000       0.00000000       0.00000000       0.00000000       0.00000000       1.09280169
Br       0.00000000       0.00000000       2.76666667       0.00000000       0.00000000      -1.09280169
2
Properties=species:S:1:pos:R:3:forces:R:3 energy=-2.3586948183143654 pbc="F F F"
Br       0.00000000       0.00000000       0.00000000       0.00000000       0.00000000       0.88173479
Br       0.00000000       0.00000000       2.82545455       0.00000000       0.00000000      -0.88173479
2
Properties=species:S:1:pos:R:3:forces:R:3 energy=-2.3125392249979018 pbc="F F F"
Br       0.00000000       0.00000000       0.00000000       0.00000000       0.00000000       0.69143677
Br       0.00000000       0.00000000       2.88424242       0.00000000       0.00000000      -0.69143677
2
Properties=species:S:1:pos:R:3:forces:R:3 energy=-2.277119543431745 pbc="F F F"
Br       0.00000000       0.00000000       0.00000000       0.00000000       0.00000000       0.51548749
Br       0.00000000       0.00000000       2.94303030       0.00000000       0.00000000      -0.51548749
2
Properties=species:S:1:pos:R:3:forces:R:3 energy=-2.251693409676346 pbc="F F F"
Br       0.00000000       0.00000000       0.00000000       0.00000000       0.00000000       0.35205549
Br       0.00000000       0.00000000       3.00181818       0.00000000       0.00000000      -0.35205549
2
Properties=species:S:1:pos:R:3:forces:R:3 energy=-2.2353126476029304 pbc="F F F"
Br       0.00000000       0.00000000       0.00000000       0.00000000       0.00000000       0.20989999
Br       0.00000000       0.00000000       3.06060606       0.00000000       0.00000000      -0.20989999
2
Properties=species:S:1:pos:R:3:forces:R:3 energy=-2.226354198145426 pbc="F F F"
Br       0.00000000       0.00000000       0.00000000       0.00000000       0.00000000       0.10112835
Br       0.00000000       0.00000000       3.11939394       0.00000000       0.00000000      -0.10112835
2
Properties=species:S:1:pos:R:3:forces:R:3 energy=-2.222678823805284 pbc="F F F"
Br       0.00000000       0.00000000       0.00000000       0.00000000       0.00000000       0.02987197
Br       0.00000000       0.00000000       3.17818182       0.00000000       0.00000000      -0.02987197
2
Properties=species:S:1:pos:R:3:forces:R:3 energy=-2.222238491804775 pbc="F F F"
Br       0.00000000       0.00000000       0.00000000       0.00000000       0.00000000      -0.01077594
Br       0.00000000       0.00000000       3.23696970       0.00000000       0.00000000       0.01077594
2
Properties=species:S:1:pos:R:3:forces:R:3 energy=-2.2236002992832677 pbc="F F F"
Br       0.00000000       0.00000000       0.00000000       0.00000000       0.00000000      -0.03374166
Br       0.00000000       0.00000000       3.29575758       0.00000000       0.00000000       0.03374166
2
Properties=species:S:1:pos:R:3:forces:R:3 energy=-2.2260998399925525 pbc="F F F"
Br       0.00000000       0.00000000       0.00000000       0.00000000       0.00000000      -0.05112923
Br       0.00000000       0.00000000       3.35454545       0.00000000       0.00000000       0.05112923
2
Properties=species:S:1:pos:R:3:forces:R:3 energy=-2.229643285038116 pbc="F F F"
Br       0.00000000       0.00000000       0.00000000       0.00000000       0.00000000      -0.06986319
Br       0.00000000       0.00000000       3.41333333       0.00000000       0.00000000       0.06986319
2
Properties=species:S:1:pos:R:3:forces:R:3 energy=-2.234360554370554 pbc="F F F"
Br       0.00000000       0.00000000       0.00000000       0.00000000       0.00000000      -0.09084956
Br       0.00000000       0.00000000       3.47212121       0.00000000       0.00000000       0.09084956
2
Properties=species:S:1:pos:R:3:forces:R:3 energy=-2.240310972874525 pbc="F F F"
Br       0.00000000       0.00000000       0.00000000       0.00000000       0.00000000      -0.11116108
Br       0.00000000       0.00000000       3.53090909       0.00000000       0.00000000       0.11116108
2
Properties=species:S:1:pos:R:3:forces:R:3 energy=-2.2473499524493517 pbc="F F F"
Br       0.00000000       0.00000000       0.00000000       0.00000000       0.00000000      -0.12741071
Br       0.00000000       0.00000000       3.58969697       0.00000000       0.00000000       0.12741071
2
Properties=species:S:1:pos:R:3:forces:R:3 energy=-2.2551791700324144 pbc="F F F"
Br       0.00000000       0.00000000       0.00000000       0.00000000       0.00000000      -0.13799043
Br       0.00000000       0.00000000       3.64848485       0.00000000       0.00000000       0.13799043
2
Properties=species:S:1:pos:R:3:forces:R:3 energy=-2.2634706157842897 pbc="F F F"
Br       0.00000000       0.00000000       0.00000000       0.00000000       0.00000000      -0.14335492
Br       0.00000000       0.00000000       3.70727273       0.00000000       0.00000000       0.14335492
2
Properties=species:S:1:pos:R:3:forces:R:3 energy=-2.2719645245200497 pbc="F F F"
Br       0.00000000       0.00000000       0.00000000       0.00000000       0.00000000      -0.14517625
Br       0.00000000       0.00000000       3.76606061       0.00000000       0.00000000       0.14517625
2
Properties=species:S:1:pos:R:3:forces:R:3 energy=-2.2805078537992607 pbc="F F F"
Br       0.00000000       0.00000000       0.00000000       0.00000000       0.00000000      -0.14538519
Br       0.00000000       0.00000000       3.82484848       0.00000000       0.00000000       0.14538519
2
Properties=species:S:1:pos:R:3:forces:R:3 energy=-2.289057070505109 pbc="F F F"
Br       0.00000000       0.00000000       0.00000000       0.00000000       0.00000000      -0.14552729
Br       0.00000000       0.00000000       3.88363636       0.00000000       0.00000000       0.14552729
2
Properties=species:S:1:pos:R:3:forces:R:3 energy=-2.2976349004630094 pbc="F F F"
Br       0.00000000       0.00000000       0.00000000       0.00000000       0.00000000      -0.14647031
Br       0.00000000       0.00000000       3.94242424       0.00000000       0.00000000       0.14647031
2
Properties=species:S:1:pos:R:3:forces:R:3 energy=-2.3062980041321626 pbc="F F F"
Br       0.00000000       0.00000000       0.00000000       0.00000000       0.00000000      -0.14838710
Br       0.00000000       0.00000000       4.00121212       0.00000000       0.00000000       0.14838710
2
Properties=species:S:1:pos:R:3:forces:R:3 energy=-2.3150951456482605 pbc="F F F"
Br       0.00000000       0.00000000       0.00000000       0.00000000       0.00000000      -0.15093900
Br       0.00000000       0.00000000       4.06000000       0.00000000       0.00000000       0.15093900
2
Properties=species:S:1:pos:R:3:forces:R:3 energy=-2.3240456527879894 pbc="F F F"
Br       0.00000000       0.00000000       0.00000000       0.00000000       0.00000000      -0.15354066
Br       0.00000000       0.00000000       4.11878788       0.00000000       0.00000000       0.15354066
2
Properties=species:S:1:pos:R:3:forces:R:3 energy=-2.3331369139899096 pbc="F F F"
Br       0.00000000       0.00000000       0.00000000       0.00000000       0.00000000      -0.15557708
Br       0.00000000       0.00000000       4.17757576       0.00000000       0.00000000       0.15557708
2
Properties=species:S:1:pos:R:3:forces:R:3 energy=-2.3423176202708644 pbc="F F F"
Br       0.00000000       0.00000000       0.00000000       0.00000000       0.00000000      -0.15653117
Br       0.00000000       0.00000000       4.23636364       0.00000000       0.00000000       0.15653117
2
Properties=species:S:1:pos:R:3:forces:R:3 energy=-2.3515127301595764 pbc="F F F"
Br       0.00000000       0.00000000       0.00000000       0.00000000       0.00000000      -0.15604843
Br       0.00000000       0.00000000       4.29515152       0.00000000       0.00000000       0.15604843
2
Properties=species:S:1:pos:R:3:forces:R:3 energy=-2.360632971593767 pbc="F F F"
Br       0.00000000       0.00000000       0.00000000       0.00000000       0.00000000      -0.15396903
Br       0.00000000       0.00000000       4.35393939       0.00000000       0.00000000       0.15396903
2
Properties=species:S:1:pos:R:3:forces:R:3 energy=-2.369584061049189 pbc="F F F"
Br       0.00000000       0.00000000       0.00000000       0.00000000       0.00000000      -0.15032135
Br       0.00000000       0.00000000       4.41272727       0.00000000       0.00000000       0.15032135
2
Properties=species:S:1:pos:R:3:forces:R:3 energy=-2.3782795995256953 pbc="F F F"
Br       0.00000000       0.00000000       0.00000000       0.00000000       0.00000000      -0.14527027
Br       0.00000000       0.00000000       4.47151515       0.00000000       0.00000000       0.14527027
2
Properties=species:S:1:pos:R:3:forces:R:3 energy=-2.386641798890357 pbc="F F F"
Br       0.00000000       0.00000000       0.00000000       0.00000000       0.00000000      -0.13904272
Br       0.00000000       0.00000000       4.53030303       0.00000000       0.00000000       0.13904272
2
Properties=species:S:1:pos:R:3:forces:R:3 energy=-2.3946086185957225 pbc="F F F"
Br       0.00000000       0.00000000       0.00000000       0.00000000       0.00000000      -0.13185881
Br       0.00000000       0.00000000       4.58909091       0.00000000       0.00000000       0.13185881
2
Properties=species:S:1:pos:R:3:forces:R:3 energy=-2.402129995332064 pbc="F F F"
Br       0.00000000       0.00000000       0.00000000       0.00000000       0.00000000      -0.12391286
Br       0.00000000       0.00000000       4.64787879       0.00000000       0.00000000       0.12391286
2
Properties=species:S:1:pos:R:3:forces:R:3 energy=-2.409166208943366 pbc="F F F"
Br       0.00000000       0.00000000       0.00000000       0.00000000       0.00000000      -0.11537500
Br       0.00000000       0.00000000       4.70666667       0.00000000       0.00000000       0.11537500
2
Properties=species:S:1:pos:R:3:forces:R:3 energy=-2.4156872051854563 pbc="F F F"
Br       0.00000000       0.00000000       0.00000000       0.00000000       0.00000000      -0.10642524
Br       0.00000000       0.00000000       4.76545455       0.00000000       0.00000000       0.10642524
2
Properties=species:S:1:pos:R:3:forces:R:3 energy=-2.421675970016064 pbc="F F F"
Br       0.00000000       0.00000000       0.00000000       0.00000000       0.00000000      -0.09727405
Br       0.00000000       0.00000000       4.82424242       0.00000000       0.00000000       0.09727405
2
Properties=species:S:1:pos:R:3:forces:R:3 energy=-2.4271250087530247 pbc="F F F"
Br       0.00000000       0.00000000       0.00000000       0.00000000       0.00000000      -0.08816428
Br       0.00000000       0.00000000       4.88303030       0.00000000       0.00000000       0.08816428
2
Properties=species:S:1:pos:R:3:forces:R:3 energy=-2.432047099460959 pbc="F F F"
Br       0.00000000       0.00000000       0.00000000       0.00000000       0.00000000      -0.07934671
Br       0.00000000       0.00000000       4.94181818       0.00000000       0.00000000       0.07934671
2
Properties=species:S:1:pos:R:3:forces:R:3 energy=-2.436465566890774 pbc="F F F"
Br       0.00000000       0.00000000       0.00000000       0.00000000       0.00000000      -0.07104125
Br       0.00000000       0.00000000       5.00060606       0.00000000       0.00000000       0.07104125
2
Properties=species:S:1:pos:R:3:forces:R:3 energy=-2.440412430567917 pbc="F F F"
Br       0.00000000       0.00000000       0.00000000       0.00000000       0.00000000      -0.06338952
Br       0.00000000       0.00000000       5.05939394       0.00000000       0.00000000       0.06338952
2
Properties=species:S:1:pos:R:3:forces:R:3 energy=-2.4439315058178175 pbc="F F F"
Br       0.00000000       0.00000000       0.00000000       0.00000000       0.00000000      -0.05642785
Br       0.00000000       0.00000000       5.11818182       0.00000000       0.00000000       0.05642785
2
Properties=species:S:1:pos:R:3:forces:R:3 energy=-2.4470591421501515 pbc="F F F"
Br       0.00000000       0.00000000       0.00000000       0.00000000       0.00000000      -0.05008239
Br       0.00000000       0.00000000       5.17696970       0.00000000       0.00000000       0.05008239
2
Properties=species:S:1:pos:R:3:forces:R:3 energy=-2.449829007865518 pbc="F F F"
Br       0.00000000       0.00000000       0.00000000       0.00000000       0.00000000      -0.04420032
Br       0.00000000       0.00000000       5.23575758       0.00000000       0.00000000       0.04420032
2
Properties=species:S:1:pos:R:3:forces:R:3 energy=-2.4522616376518194 pbc="F F F"
Br       0.00000000       0.00000000       0.00000000       0.00000000       0.00000000      -0.03859269
Br       0.00000000       0.00000000       5.29454545       0.00000000       0.00000000       0.03859269
2
Properties=species:S:1:pos:R:3:forces:R:3 energy=-2.4543692033317135 pbc="F F F"
Br       0.00000000       0.00000000       0.00000000       0.00000000       0.00000000      -0.03309374
Br       0.00000000       0.00000000       5.35333333       0.00000000       0.00000000       0.03309374
2
Properties=species:S:1:pos:R:3:forces:R:3 energy=-2.4561533874983104 pbc="F F F"
Br       0.00000000       0.00000000       0.00000000       0.00000000       0.00000000      -0.02760610
Br       0.00000000       0.00000000       5.41212121       0.00000000       0.00000000       0.02760610
2
Properties=species:S:1:pos:R:3:forces:R:3 energy=-2.4576142220296435 pbc="F F F"
Br       0.00000000       0.00000000       0.00000000       0.00000000       0.00000000      -0.02212992
Br       0.00000000       0.00000000       5.47090909       0.00000000       0.00000000       0.02212992
2
Properties=species:S:1:pos:R:3:forces:R:3 energy=-2.458757251337444 pbc="F F F"
Br       0.00000000       0.00000000       0.00000000       0.00000000       0.00000000      -0.01676200
Br       0.00000000       0.00000000       5.52969697       0.00000000       0.00000000       0.01676200
2
Properties=species:S:1:pos:R:3:forces:R:3 energy=-2.459590903823101 pbc="F F F"
Br       0.00000000       0.00000000       0.00000000       0.00000000       0.00000000      -0.01168370
Br       0.00000000       0.00000000       5.58848485       0.00000000       0.00000000       0.01168370
2
Properties=species:S:1:pos:R:3:forces:R:3 energy=-2.4601413023399687 pbc="F F F"
Br       0.00000000       0.00000000       0.00000000       0.00000000       0.00000000      -0.00712198
Br       0.00000000       0.00000000       5.64727273       0.00000000       0.00000000       0.00712198
2
Properties=species:S:1:pos:R:3:forces:R:3 energy=-2.4604431876562916 pbc="F F F"
Br       0.00000000       0.00000000       0.00000000       0.00000000       0.00000000      -0.00330027
Br       0.00000000       0.00000000       5.70606061       0.00000000       0.00000000       0.00330027
2
Properties=species:S:1:pos:R:3:forces:R:3 energy=-2.4605473189346236 pbc="F F F"
Br       0.00000000       0.00000000       0.00000000       0.00000000       0.00000000      -0.00038496
Br       0.00000000       0.00000000       5.76484848       0.00000000       0.00000000       0.00038496
2
Properties=species:S:1:pos:R:3:forces:R:3 energy=-2.4605076133837587 pbc="F F F"
Br       0.00000000       0.00000000       0.00000000       0.00000000       0.00000000       0.00154697
Br       0.00000000       0.00000000       5.82363636       0.00000000       0.00000000      -0.00154697
2
Properties=species:S:1:pos:R:3:forces:R:3 energy=-2.460383030640649 pbc="F F F"
Br       0.00000000       0.00000000       0.00000000       0.00000000       0.00000000       0.00255812
Br       0.00000000       0.00000000       5.88242424       0.00000000       0.00000000      -0.00255812
2
Properties=species:S:1:pos:R:3:forces:R:3 energy=-2.4602209012888703 pbc="F F F"
Br       0.00000000       0.00000000       0.00000000       0.00000000       0.00000000       0.00284682
Br       0.00000000       0.00000000       5.94121212       0.00000000       0.00000000      -0.00284682
2
Properties=species:S:1:pos:R:3:forces:R:3 energy=-2.460056205861206 pbc="F F F"
Br       0.00000000       0.00000000       0.00000000       0.00000000       0.00000000       0.00273432
Br       0.00000000       0.00000000       6.00000000       0.00000000       0.00000000      -0.00273432
