2
Properties=species:S:1:pos:R:3:forces:R:3 energy=176131.46574054915 pbc="F F F"
C        0.00000000       0.00000000       0.00000000       0.00000000       0.00000000 -1343687.25000000
C        0.00000000       0.00000000       0.18000000       0.00000000       0.00000000 1343687.25000000
2
Properties=species:S:1:pos:R:3:forces:R:3 energy=103708.12199055073 pbc="F F F"
C        0.00000000       0.00000000       0.00000000       0.00000000       0.00000000 -1080877.87500000
C        0.00000000       0.00000000       0.23878788       0.00000000       0.00000000 1080877.87500000
2
Properties=species:S:1:pos:R:3:forces:R:3 energy=51554.7430843039 pbc="F F F"
C        0.00000000       0.00000000       0.00000000       0.00000000       0.00000000 -689448.75000000
C        0.00000000       0.00000000       0.29757576       0.00000000       0.00000000  689448.75000000
2
Properties=species:S:1:pos:R:3:forces:R:3 energy=21467.786053061816 pbc="F F F"
C        0.00000000       0.00000000       0.00000000       0.00000000       0.00000000 -355758.62500000
C        0.00000000       0.00000000       0.35636364       0.00000000       0.00000000  355758.62500000
2
Properties=species:S:1:pos:R:3:forces:R:3 energy=7238.932049174572 pbc="F F F"
C        0.00000000       0.00000000       0.00000000       0.00000000       0.00000000 -147148.40625000
C        0.00000000       0.00000000       0.41515152       0.00000000       0.00000000  147148.40625000
2
Properties=species:S:1:pos:R:3:forces:R:3 energy=1922.680096087586 pbc="F F F"
C        0.00000000       0.00000000       0.00000000       0.00000000       0.00000000  -49418.16796875
C        0.00000000       0.00000000       0.47393939       0.00000000       0.00000000   49418.16796875
2
Properties=species:S:1:pos:R:3:forces:R:3 energy=374.6092343408718 pbc="F F F"
C        0.00000000       0.00000000       0.00000000       0.00000000       0.00000000  -10322.89843750
C        0.00000000       0.00000000       0.53272727       0.00000000       0.00000000   10322.89843750
2
Properties=species:S:1:pos:R:3:forces:R:3 energy=86.41618026361424 pbc="F F F"
C        0.00000000       0.00000000       0.00000000       0.00000000       0.00000000   -1633.92211914
C        0.00000000       0.00000000       0.59151515       0.00000000       0.00000000    1633.92211914
2
Properties=species:S:1:pos:R:3:forces:R:3 energy=39.96202549650922 pbc="F F F"
C        0.00000000       0.00000000       0.00000000       0.00000000       0.00000000    -368.06219482
C        0.00000000       0.00000000       0.65030303       0.00000000       0.00000000     368.06219482
2
Properties=species:S:1:pos:R:3:forces:R:3 energy=24.831122567688972 pbc="F F F"
C        0.00000000       0.00000000       0.00000000       0.00000000       0.00000000    -200.97271729
C        0.00000000       0.00000000       0.70909091       0.00000000       0.00000000     200.97271729
2
Properties=species:S:1:pos:R:3:forces:R:3 energy=15.083507233405044 pbc="F F F"
C        0.00000000       0.00000000       0.00000000       0.00000000       0.00000000    -136.11343384
C        0.00000000       0.00000000       0.76787879       0.00000000       0.00000000     136.11343384
2
Properties=species:S:1:pos:R:3:forces:R:3 energy=7.737982199836145 pbc="F F F"
C        0.00000000       0.00000000       0.00000000       0.00000000       0.00000000    -115.29306793
C        0.00000000       0.00000000       0.82666667       0.00000000       0.00000000     115.29306793
2
Properties=species:S:1:pos:R:3:forces:R:3 energy=1.676022991618407 pbc="F F F"
C        0.00000000       0.00000000       0.00000000       0.00000000       0.00000000     -92.69072723
C        0.00000000       0.00000000       0.88545455       0.00000000       0.00000000      92.69072723
2
Properties=species:S:1:pos:R:3:forces:R:3 energy=-2.9913368486577196 pbc="F F F"
C        0.00000000       0.00000000       0.00000000       0.00000000       0.00000000     -64.87751007
C        0.00000000       0.00000000       0.94424242       0.00000000       0.00000000      64.87751007
2
Properties=species:S:1:pos:R:3:forces:R:3 energy=-6.144915567619389 pbc="F F F"
C        0.00000000       0.00000000       0.00000000       0.00000000       0.00000000     -44.40896225
C        0.00000000       0.00000000       1.00303030       0.00000000       0.00000000      44.40896225
2
Properties=species:S:1:pos:R:3:forces:R:3 energy=-8.286730991232474 pbc="F F F"
C        0.00000000       0.00000000       0.00000000       0.00000000       0.00000000     -28.35073280
C        0.00000000       0.00000000       1.06181818       0.00000000       0.00000000      28.35073280
2
Properties=species:S:1:pos:R:3:forces:R:3 energy=-9.62236747132877 pbc="F F F"
C        0.00000000       0.00000000       0.00000000       0.00000000       0.00000000     -17.41375160
C        0.00000000       0.00000000       1.12060606       0.00000000       0.00000000      17.41375160
2
Properties=species:S:1:pos:R:3:forces:R:3 energy=-10.41982826099322 pbc="F F F"
C        0.00000000       0.00000000       0.00000000       0.00000000       0.00000000      -9.66882706
C        0.00000000       0.00000000       1.17939394       0.00000000       0.00000000       9.66882706
2
Properties=species:S:1:pos:R:3:forces:R:3 energy=-10.827239739067217 pbc="F F F"
C        0.00000000       0.00000000       0.00000000       0.00000000       0.00000000      -4.23011875
C        0.00000000       0.00000000       1.23818182       0.00000000       0.00000000       4.23011875
2
Properties=species:S:1:pos:R:3:forces:R:3 energy=-10.970768017988705 pbc="F F F"
C        0.00000000       0.00000000       0.00000000       0.00000000       0.00000000      -0.71254396
C        0.00000000       0.00000000       1.29696970       0.00000000       0.00000000       0.71254396
2
Properties=species:S:1:pos:R:3:forces:R:3 energy=-10.932921017021316 pbc="F F F"
C        0.00000000       0.00000000       0.00000000       0.00000000       0.00000000       2.01259637
C        0.00000000       0.00000000       1.35575758       0.00000000       0.00000000      -2.01259637
2
Properties=species:S:1:pos:R:3:forces:R:3 energy=-10.761010482572008 pbc="F F F"
C        0.00000000       0.00000000       0.00000000       0.00000000       0.00000000       3.69813013
C        0.00000000       0.00000000       1.41454545       0.00000000       0.00000000      -3.69813013
2
Properties=species:S:1:pos:R:3:forces:R:3 energy=-10.491522427178731 pbc="F F F"
C        0.00000000       0.00000000       0.00000000       0.00000000       0.00000000       5.47970724
C        0.00000000       0.00000000       1.47333333       0.00000000       0.00000000      -5.47970724
2
Properties=species:S:1:pos:R:3:forces:R:3 energy=-10.125785280990527 pbc="F F F"
C        0.00000000       0.00000000       0.00000000       0.00000000       0.00000000       6.83102036
C        0.00000000       0.00000000       1.53212121       0.00000000       0.00000000      -6.83102036
2
Properties=species:S:1:pos:R:3:forces:R:3 energy=-9.712182689931984 pbc="F F F"
C        0.00000000       0.00000000       0.00000000       0.00000000       0.00000000       7.20404911
C        0.00000000       0.00000000       1.59090909       0.00000000       0.00000000      -7.20404911
2
Properties=species:S:1:pos:R:3:forces:R:3 energy=-9.273767857620083 pbc="F F F"
C        0.00000000       0.00000000       0.00000000       0.00000000       0.00000000       7.56520033
C        0.00000000       0.00000000       1.64969697       0.00000000       0.00000000      -7.56520033
2
Properties=species:S:1:pos:R:3:forces:R:3 energy=-8.82962291300102 pbc="F F F"
C        0.00000000       0.00000000       0.00000000       0.00000000       0.00000000       7.60852385
C        0.00000000       0.00000000       1.70848485       0.00000000       0.00000000      -7.60852385
2
Properties=species:S:1:pos:R:3:forces:R:3 energy=-8.37906533950345 pbc="F F F"
C        0.00000000       0.00000000       0.00000000       0.00000000       0.00000000       7.70007038
C        0.00000000       0.00000000       1.76727273       0.00000000       0.00000000      -7.70007038
2
Properties=species:S:1:pos:R:3:forces:R:3 energy=-7.93876531869511 pbc="F F F"
C        0.00000000       0.00000000       0.00000000       0.00000000       0.00000000       7.22675085
C        0.00000000       0.00000000       1.82606061       0.00000000       0.00000000      -7.22675085
2
Properties=species:S:1:pos:R:3:forces:R:3 energy=-7.503014127534654 pbc="F F F"
C        0.00000000       0.00000000       0.00000000       0.00000000       0.00000000       7.64036274
C        0.00000000       0.00000000       1.88484848       0.00000000       0.00000000      -7.64036274
2
Properties=species:S:1:pos:R:3:forces:R:3 energy=-7.048798178636394 pbc="F F F"
C        0.00000000       0.00000000       0.00000000       0.00000000       0.00000000       7.73012590
C        0.00000000       0.00000000       1.94363636       0.00000000       0.00000000      -7.73012590
2
Properties=species:S:1:pos:R:3:forces:R:3 energy=-6.603272122038389 pbc="F F F"
C        0.00000000       0.00000000       0.00000000       0.00000000       0.00000000       7.34972858
C        0.00000000       0.00000000       2.00242424       0.00000000       0.00000000      -7.34972858
2
Properties=species:S:1:pos:R:3:forces:R:3 energy=-6.188496040318195 pbc="F F F"
C        0.00000000       0.00000000       0.00000000       0.00000000       0.00000000       6.78563690
C        0.00000000       0.00000000       2.06121212       0.00000000       0.00000000      -6.78563690
2
Properties=species:S:1:pos:R:3:forces:R:3 energy=-5.803765648343621 pbc="F F F"
C        0.00000000       0.00000000       0.00000000       0.00000000       0.00000000       6.30301332
C        0.00000000       0.00000000       2.12000000       0.00000000       0.00000000      -6.30301332
2
Properties=species:S:1:pos:R:3:forces:R:3 energy=-5.446943820372697 pbc="F F F"
C        0.00000000       0.00000000       0.00000000       0.00000000       0.00000000       5.82549334
C        0.00000000       0.00000000       2.17878788       0.00000000       0.00000000      -5.82549334
2
Properties=species:S:1:pos:R:3:forces:R:3 energy=-5.122424314909819 pbc="F F F"
C        0.00000000       0.00000000       0.00000000       0.00000000       0.00000000       5.19830275
C        0.00000000       0.00000000       2.23757576       0.00000000       0.00000000      -5.19830275
2
Properties=species:S:1:pos:R:3:forces:R:3 energy=-4.833923105568315 pbc="F F F"
C        0.00000000       0.00000000       0.00000000       0.00000000       0.00000000       4.63685179
C        0.00000000       0.00000000       2.29636364       0.00000000       0.00000000      -4.63685179
2
Properties=species:S:1:pos:R:3:forces:R:3 energy=-4.577421758794023 pbc="F F F"
C        0.00000000       0.00000000       0.00000000       0.00000000       0.00000000       4.07529640
C        0.00000000       0.00000000       2.35515152       0.00000000       0.00000000      -4.07529640
2
Properties=species:S:1:pos:R:3:forces:R:3 energy=-4.354945259671021 pbc="F F F"
C        0.00000000       0.00000000       0.00000000       0.00000000       0.00000000       3.50702405
C        0.00000000       0.00000000       2.41393939       0.00000000       0.00000000      -3.50702405
2
Properties=species:S:1:pos:R:3:forces:R:3 energy=-4.163270315243194 pbc="F F F"
C        0.00000000       0.00000000       0.00000000       0.00000000       0.00000000       3.02245617
C        0.00000000       0.00000000       2.47272727       0.00000000       0.00000000      -3.02245617
2
Properties=species:S:1:pos:R:3:forces:R:3 energy=-3.999804762530966 pbc="F F F"
C        0.00000000       0.00000000       0.00000000       0.00000000       0.00000000       2.53289938
C        0.00000000       0.00000000       2.53151515       0.00000000       0.00000000      -2.53289938
2
Properties=species:S:1:pos:R:3:forces:R:3 energy=-3.8653076629337546 pbc="F F F"
C        0.00000000       0.00000000       0.00000000       0.00000000       0.00000000       2.05134988
C        0.00000000       0.00000000       2.59030303       0.00000000       0.00000000      -2.05134988
2
Properties=species:S:1:pos:R:3:forces:R:3 energy=-3.75729433847733 pbc="F F F"
C        0.00000000       0.00000000       0.00000000       0.00000000       0.00000000       1.63562274
C        0.00000000       0.00000000       2.64909091       0.00000000       0.00000000      -1.63562274
2
Properties=species:S:1:pos:R:3:forces:R:3 energy=-3.671535828191466 pbc="F F F"
C        0.00000000       0.00000000       0.00000000       0.00000000       0.00000000       1.29377484
C        0.00000000       0.00000000       2.70787879       0.00000000       0.00000000      -1.29377484
2
Properties=species:S:1:pos:R:3:forces:R:3 energy=-3.6039368644921863 pbc="F F F"
C        0.00000000       0.00000000       0.00000000       0.00000000       0.00000000       1.01580262
C        0.00000000       0.00000000       2.76666667       0.00000000       0.00000000      -1.01580262
2
Properties=species:S:1:pos:R:3:forces:R:3 energy=-3.5509355815136656 pbc="F F F"
C        0.00000000       0.00000000       0.00000000       0.00000000       0.00000000       0.79687226
C        0.00000000       0.00000000       2.82545455       0.00000000       0.00000000      -0.79687226
2
Properties=species:S:1:pos:R:3:forces:R:3 energy=-3.5092794855911644 pbc="F F F"
C        0.00000000       0.00000000       0.00000000       0.00000000       0.00000000       0.62685835
C        0.00000000       0.00000000       2.88424242       0.00000000       0.00000000      -0.62685835
2
Properties=species:S:1:pos:R:3:forces:R:3 energy=-3.476615857274526 pbc="F F F"
C        0.00000000       0.00000000       0.00000000       0.00000000       0.00000000       0.48894289
C        0.00000000       0.00000000       2.94303030       0.00000000       0.00000000      -0.48894289
2
Properties=species:S:1:pos:R:3:forces:R:3 energy=-3.4512352414474603 pbc="F F F"
C        0.00000000       0.00000000       0.00000000       0.00000000       0.00000000       0.37955514
C        0.00000000       0.00000000       3.00181818       0.00000000       0.00000000      -0.37955514
2
Properties=species:S:1:pos:R:3:forces:R:3 energy=-3.4313762314221767 pbc="F F F"
C        0.00000000       0.00000000       0.00000000       0.00000000       0.00000000       0.30110568
C        0.00000000       0.00000000       3.06060606       0.00000000       0.00000000      -0.30110568
2
Properties=species:S:1:pos:R:3:forces:R:3 energy=-3.4153513713721675 pbc="F F F"
C        0.00000000       0.00000000       0.00000000       0.00000000       0.00000000       0.24717548
C        0.00000000       0.00000000       3.11939394       0.00000000       0.00000000      -0.24717548
2
Properties=species:S:1:pos:R:3:forces:R:3 energy=-3.40208688214232 pbc="F F F"
C        0.00000000       0.00000000       0.00000000       0.00000000       0.00000000       0.20507409
C        0.00000000       0.00000000       3.17818182       0.00000000       0.00000000      -0.20507409
2
Properties=species:S:1:pos:R:3:forces:R:3 energy=-3.391186506742959 pbc="F F F"
C        0.00000000       0.00000000       0.00000000       0.00000000       0.00000000       0.16581696
C        0.00000000       0.00000000       3.23696970       0.00000000       0.00000000      -0.16581696
2
Properties=species:S:1:pos:R:3:forces:R:3 energy=-3.3825738143730204 pbc="F F F"
C        0.00000000       0.00000000       0.00000000       0.00000000       0.00000000       0.12765387
C        0.00000000       0.00000000       3.29575758       0.00000000       0.00000000      -0.12765387
2
Properties=species:S:1:pos:R:3:forces:R:3 energy=-3.376115399278672 pbc="F F F"
C        0.00000000       0.00000000       0.00000000       0.00000000       0.00000000       0.09271324
C        0.00000000       0.00000000       3.35454545       0.00000000       0.00000000      -0.09271324
2
Properties=species:S:1:pos:R:3:forces:R:3 energy=-3.371568294825425 pbc="F F F"
C        0.00000000       0.00000000       0.00000000       0.00000000       0.00000000       0.06289670
C        0.00000000       0.00000000       3.41333333       0.00000000       0.00000000      -0.06289670
2
Properties=species:S:1:pos:R:3:forces:R:3 energy=-3.3686018375233706 pbc="F F F"
C        0.00000000       0.00000000       0.00000000       0.00000000       0.00000000       0.03908647
C        0.00000000       0.00000000       3.47212121       0.00000000       0.00000000      -0.03908647
2
Properties=species:S:1:pos:R:3:forces:R:3 energy=-3.366847102868345 pbc="F F F"
C        0.00000000       0.00000000       0.00000000       0.00000000       0.00000000       0.02170796
C        0.00000000       0.00000000       3.53090909       0.00000000       0.00000000      -0.02170796
2
Properties=species:S:1:pos:R:3:forces:R:3 energy=-3.3659311433746124 pbc="F F F"
C        0.00000000       0.00000000       0.00000000       0.00000000       0.00000000       0.01035997
C        0.00000000       0.00000000       3.58969697       0.00000000       0.00000000      -0.01035997
2
Properties=species:S:1:pos:R:3:forces:R:3 energy=-3.3655427065715013 pbc="F F F"
C        0.00000000       0.00000000       0.00000000       0.00000000       0.00000000       0.00336363
C        0.00000000       0.00000000       3.64848485       0.00000000       0.00000000      -0.00336363
2
Properties=species:S:1:pos:R:3:forces:R:3 energy=-3.365496055946823 pbc="F F F"
C        0.00000000       0.00000000       0.00000000       0.00000000       0.00000000      -0.00169565
C        0.00000000       0.00000000       3.70727273       0.00000000       0.00000000       0.00169565
2
Properties=species:S:1:pos:R:3:forces:R:3 energy=-3.365743313276101 pbc="F F F"
C        0.00000000       0.00000000       0.00000000       0.00000000       0.00000000      -0.00687082
C        0.00000000       0.00000000       3.76606061       0.00000000       0.00000000       0.00687082
2
Properties=species:S:1:pos:R:3:forces:R:3 energy=-3.3663258030174568 pbc="F F F"
C        0.00000000       0.00000000       0.00000000       0.00000000       0.00000000      -0.01309942
C        0.00000000       0.00000000       3.82484848       0.00000000       0.00000000       0.01309942
2
Properties=species:S:1:pos:R:3:forces:R:3 energy=-3.3673005995903553 pbc="F F F"
C        0.00000000       0.00000000       0.00000000       0.00000000       0.00000000      -0.02014659
C        0.00000000       0.00000000       3.88363636       0.00000000       0.00000000       0.02014659
2
Properties=species:S:1:pos:R:3:forces:R:3 energy=-3.368693818716904 pbc="F F F"
C        0.00000000       0.00000000       0.00000000       0.00000000       0.00000000      -0.02704997
C        0.00000000       0.00000000       3.94242424       0.00000000       0.00000000       0.02704997
2
Properties=species:S:1:pos:R:3:forces:R:3 energy=-3.3704567761217383 pbc="F F F"
C        0.00000000       0.00000000       0.00000000       0.00000000       0.00000000      -0.03269539
C        0.00000000       0.00000000       4.00121212       0.00000000       0.00000000       0.03269539
2
Properties=species:S:1:pos:R:3:forces:R:3 energy=-3.372494621124207 pbc="F F F"
C        0.00000000       0.00000000       0.00000000       0.00000000       0.00000000      -0.03621839
C        0.00000000       0.00000000       4.06000000       0.00000000       0.00000000       0.03621839
2
Properties=species:S:1:pos:R:3:forces:R:3 energy=-3.3746663885114545 pbc="F F F"
C        0.00000000       0.00000000       0.00000000       0.00000000       0.00000000      -0.03718064
C        0.00000000       0.00000000       4.11878788       0.00000000       0.00000000       0.03718064
2
Properties=species:S:1:pos:R:3:forces:R:3 energy=-3.376815569177571 pbc="F F F"
C        0.00000000       0.00000000       0.00000000       0.00000000       0.00000000      -0.03559455
C        0.00000000       0.00000000       4.17757576       0.00000000       0.00000000       0.03559455
2
Properties=species:S:1:pos:R:3:forces:R:3 energy=-3.3788082887744677 pbc="F F F"
C        0.00000000       0.00000000       0.00000000       0.00000000       0.00000000      -0.03187747
C        0.00000000       0.00000000       4.23636364       0.00000000       0.00000000       0.03187747
2
Properties=species:S:1:pos:R:3:forces:R:3 energy=-3.380537175470165 pbc="F F F"
C        0.00000000       0.00000000       0.00000000       0.00000000       0.00000000      -0.02676006
C        0.00000000       0.00000000       4.29515152       0.00000000       0.00000000       0.02676006
2
Properties=species:S:1:pos:R:3:forces:R:3 energy=-3.3819443103008946 pbc="F F F"
C        0.00000000       0.00000000       0.00000000       0.00000000       0.00000000      -0.02113497
C        0.00000000       0.00000000       4.35393939       0.00000000       0.00000000       0.02113497
2
Properties=species:S:1:pos:R:3:forces:R:3 energy=-3.38302885696161 pbc="F F F"
C        0.00000000       0.00000000       0.00000000       0.00000000       0.00000000      -0.01586464
C        0.00000000       0.00000000       4.41272727       0.00000000       0.00000000       0.01586464
2
Properties=species:S:1:pos:R:3:forces:R:3 energy=-3.383830909531226 pbc="F F F"
C        0.00000000       0.00000000       0.00000000       0.00000000       0.00000000      -0.01158949
C        0.00000000       0.00000000       4.47151515       0.00000000       0.00000000       0.01158949
2
Properties=species:S:1:pos:R:3:forces:R:3 energy=-3.384416261006026 pbc="F F F"
C        0.00000000       0.00000000       0.00000000       0.00000000       0.00000000      -0.00860291
C        0.00000000       0.00000000       4.53030303       0.00000000       0.00000000       0.00860291
2
Properties=species:S:1:pos:R:3:forces:R:3 energy=-3.384864975046971 pbc="F F F"
C        0.00000000       0.00000000       0.00000000       0.00000000       0.00000000      -0.00683428
C        0.00000000       0.00000000       4.58909091       0.00000000       0.00000000       0.00683428
2
Properties=species:S:1:pos:R:3:forces:R:3 energy=-3.3852380295533857 pbc="F F F"
C        0.00000000       0.00000000       0.00000000       0.00000000       0.00000000      -0.00594384
C        0.00000000       0.00000000       4.64787879       0.00000000       0.00000000       0.00594384
2
Properties=species:S:1:pos:R:3:forces:R:3 energy=-3.385570665493361 pbc="F F F"
C        0.00000000       0.00000000       0.00000000       0.00000000       0.00000000      -0.00548625
C        0.00000000       0.00000000       4.70666667       0.00000000       0.00000000       0.00548625
2
Properties=species:S:1:pos:R:3:forces:R:3 energy=-3.385881922854964 pbc="F F F"
C        0.00000000       0.00000000       0.00000000       0.00000000       0.00000000      -0.00507031
C        0.00000000       0.00000000       4.76545455       0.00000000       0.00000000       0.00507031
2
Properties=species:S:1:pos:R:3:forces:R:3 energy=-3.386164172007536 pbc="F F F"
C        0.00000000       0.00000000       0.00000000       0.00000000       0.00000000      -0.00446252
C        0.00000000       0.00000000       4.82424242       0.00000000       0.00000000       0.00446252
2
Properties=species:S:1:pos:R:3:forces:R:3 energy=-3.386404097902463 pbc="F F F"
C        0.00000000       0.00000000       0.00000000       0.00000000       0.00000000      -0.00360329
C        0.00000000       0.00000000       4.88303030       0.00000000       0.00000000       0.00360329
2
Properties=species:S:1:pos:R:3:forces:R:3 energy=-3.386584603066054 pbc="F F F"
C        0.00000000       0.00000000       0.00000000       0.00000000       0.00000000      -0.00255559
C        0.00000000       0.00000000       4.94181818       0.00000000       0.00000000       0.00255559
2
Properties=species:S:1:pos:R:3:forces:R:3 energy=-3.386701989774334 pbc="F F F"
C        0.00000000       0.00000000       0.00000000       0.00000000       0.00000000      -0.00142667
C        0.00000000       0.00000000       5.00060606       0.00000000       0.00000000       0.00142667
2
Properties=species:S:1:pos:R:3:forces:R:3 energy=-3.386749747391679 pbc="F F F"
C        0.00000000       0.00000000       0.00000000       0.00000000       0.00000000      -0.00030417
C        0.00000000       0.00000000       5.05939394       0.00000000       0.00000000       0.00030417
2
Properties=species:S:1:pos:R:3:forces:R:3 energy=-3.38673761754161 pbc="F F F"
C        0.00000000       0.00000000       0.00000000       0.00000000       0.00000000       0.00076823
C        0.00000000       0.00000000       5.11818182       0.00000000       0.00000000      -0.00076823
2
Properties=species:S:1:pos:R:3:forces:R:3 energy=-3.3866620395084595 pbc="F F F"
C        0.00000000       0.00000000       0.00000000       0.00000000       0.00000000       0.00177962
C        0.00000000       0.00000000       5.17696970       0.00000000       0.00000000      -0.00177962
2
Properties=species:S:1:pos:R:3:forces:R:3 energy=-3.38652903307527 pbc="F F F"
C        0.00000000       0.00000000       0.00000000       0.00000000       0.00000000       0.00272204
C        0.00000000       0.00000000       5.23575758       0.00000000       0.00000000      -0.00272204
2
Properties=species:S:1:pos:R:3:forces:R:3 energy=-3.386345615553936 pbc="F F F"
C        0.00000000       0.00000000       0.00000000       0.00000000       0.00000000       0.00356411
C        0.00000000       0.00000000       5.29454545       0.00000000       0.00000000      -0.00356411
2
Properties=species:S:1:pos:R:3:forces:R:3 energy=-3.3861150329186542 pbc="F F F"
C        0.00000000       0.00000000       0.00000000       0.00000000       0.00000000       0.00424579
C        0.00000000       0.00000000       5.35333333       0.00000000       0.00000000      -0.00424579
2
Properties=species:S:1:pos:R:3:forces:R:3 energy=-3.3858501048117104 pbc="F F F"
C        0.00000000       0.00000000       0.00000000       0.00000000       0.00000000       0.00469166
C        0.00000000       0.00000000       5.41212121       0.00000000       0.00000000      -0.00469166
2
Properties=species:S:1:pos:R:3:forces:R:3 energy=-3.3855703667873502 pbc="F F F"
C        0.00000000       0.00000000       0.00000000       0.00000000       0.00000000       0.00483870
C        0.00000000       0.00000000       5.47090909       0.00000000       0.00000000      -0.00483870
2
Properties=species:S:1:pos:R:3:forces:R:3 energy=-3.3852877600493194 pbc="F F F"
C        0.00000000       0.00000000       0.00000000       0.00000000       0.00000000       0.00466102
C        0.00000000       0.00000000       5.52969697       0.00000000       0.00000000      -0.00466102
2
Properties=species:S:1:pos:R:3:forces:R:3 energy=-3.385026656136649 pbc="F F F"
C        0.00000000       0.00000000       0.00000000       0.00000000       0.00000000       0.00418748
C        0.00000000       0.00000000       5.58848485       0.00000000       0.00000000      -0.00418748
2
Properties=species:S:1:pos:R:3:forces:R:3 energy=-3.384801923998288 pbc="F F F"
C        0.00000000       0.00000000       0.00000000       0.00000000       0.00000000       0.00350076
C        0.00000000       0.00000000       5.64727273       0.00000000       0.00000000      -0.00350076
2
Properties=species:S:1:pos:R:3:forces:R:3 energy=-3.384616061545573 pbc="F F F"
C        0.00000000       0.00000000       0.00000000       0.00000000       0.00000000       0.00272107
C        0.00000000       0.00000000       5.70606061       0.00000000       0.00000000      -0.00272107
2
Properties=species:S:1:pos:R:3:forces:R:3 energy=-3.3844801778731077 pbc="F F F"
C        0.00000000       0.00000000       0.00000000       0.00000000       0.00000000       0.00197749
C        0.00000000       0.00000000       5.76484848       0.00000000       0.00000000      -0.00197749
2
Properties=species:S:1:pos:R:3:forces:R:3 energy=-3.3843806133707646 pbc="F F F"
C        0.00000000       0.00000000       0.00000000       0.00000000       0.00000000       0.00138026
C        0.00000000       0.00000000       5.82363636       0.00000000       0.00000000      -0.00138026
2
Properties=species:S:1:pos:R:3:forces:R:3 energy=-3.384313267148346 pbc="F F F"
C        0.00000000       0.00000000       0.00000000       0.00000000       0.00000000       0.00098747
C        0.00000000       0.00000000       5.88242424       0.00000000       0.00000000      -0.00098747
2
Properties=species:S:1:pos:R:3:forces:R:3 energy=-3.384259755524154 pbc="F F F"
C        0.00000000       0.00000000       0.00000000       0.00000000       0.00000000       0.00079144
C        0.00000000       0.00000000       5.94121212       0.00000000       0.00000000      -0.00079144
2
Properties=species:S:1:pos:R:3:forces:R:3 energy=-3.3842179278212177 pbc="F F F"
C        0.00000000       0.00000000       0.00000000       0.00000000       0.00000000       0.00071887
C        0.00000000       0.00000000       6.00000000       0.00000000       0.00000000      -0.00071887
