2
Properties=species:S:1:pos:R:3:forces:R:3 energy=10819203.954253353 pbc="F F F"
Cd       0.00000000       0.00000000       0.00000000       0.00000000       0.00000000 -94200504.00000000
Cd       0.00000000       0.00000000       0.18000000       0.00000000       0.00000000 94200504.00000000
2
Properties=species:S:1:pos:R:3:forces:R:3 energy=5923107.954253354 pbc="F F F"
Cd       0.00000000       0.00000000       0.00000000       0.00000000       0.00000000 -70087640.00000000
Cd       0.00000000       0.00000000       0.23878788       0.00000000       0.00000000 70087640.00000000
2
Properties=species:S:1:pos:R:3:forces:R:3 energy=2675354.454253357 pbc="F F F"
Cd       0.00000000       0.00000000       0.00000000       0.00000000       0.00000000 -40798216.00000000
Cd       0.00000000       0.00000000       0.29757576       0.00000000       0.00000000 40798216.00000000
2
Properties=species:S:1:pos:R:3:forces:R:3 energy=984338.0167533599 pbc="F F F"
Cd       0.00000000       0.00000000       0.00000000       0.00000000       0.00000000 -18495208.00000000
Cd       0.00000000       0.00000000       0.35636364       0.00000000       0.00000000 18495208.00000000
2
Properties=species:S:1:pos:R:3:forces:R:3 energy=292665.17300336633 pbc="F F F"
Cd       0.00000000       0.00000000       0.00000000       0.00000000       0.00000000 -6599188.00000000
Cd       0.00000000       0.00000000       0.41515152       0.00000000       0.00000000 6599188.00000000
2
Properties=species:S:1:pos:R:3:forces:R:3 energy=70388.37612838532 pbc="F F F"
Cd       0.00000000       0.00000000       0.00000000       0.00000000       0.00000000 -1742510.00000000
Cd       0.00000000       0.00000000       0.47393939       0.00000000       0.00000000 1742510.00000000
2
Properties=species:S:1:pos:R:3:forces:R:3 energy=14949.001128417005 pbc="F F F"
Cd       0.00000000       0.00000000       0.00000000       0.00000000       0.00000000 -433161.96875000
Cd       0.00000000       0.00000000       0.53272727       0.00000000       0.00000000  433161.96875000
2
Properties=species:S:1:pos:R:3:forces:R:3 energy=2150.3251030770653 pbc="F F F"
Cd       0.00000000       0.00000000       0.00000000       0.00000000       0.00000000  -82404.60937500
Cd       0.00000000       0.00000000       0.59151515       0.00000000       0.00000000   82404.60937500
2
Properties=species:S:1:pos:R:3:forces:R:3 energy=449.77526796068605 pbc="F F F"
Cd       0.00000000       0.00000000       0.00000000       0.00000000       0.00000000   -4995.00097656
Cd       0.00000000       0.00000000       0.65030303       0.00000000       0.00000000    4995.00097656
2
Properties=species:S:1:pos:R:3:forces:R:3 energy=330.9937434418671 pbc="F F F"
Cd       0.00000000       0.00000000       0.00000000       0.00000000       0.00000000    -961.48822021
Cd       0.00000000       0.00000000       0.70909091       0.00000000       0.00000000     961.48822021
2
Properties=species:S:1:pos:R:3:forces:R:3 energy=276.0177915025058 pbc="F F F"
Cd       0.00000000       0.00000000       0.00000000       0.00000000       0.00000000    -746.94372559
Cd       0.00000000       0.00000000       0.76787879       0.00000000       0.00000000     746.94372559
2
Properties=species:S:1:pos:R:3:forces:R:3 energy=238.70692450338208 pbc="F F F"
Cd       0.00000000       0.00000000       0.00000000       0.00000000       0.00000000    -458.90927124
Cd       0.00000000       0.00000000       0.82666667       0.00000000       0.00000000     458.90927124
2
Properties=species:S:1:pos:R:3:forces:R:3 energy=203.49806263585404 pbc="F F F"
Cd       0.00000000       0.00000000       0.00000000       0.00000000       0.00000000    -599.37322998
Cd       0.00000000       0.00000000       0.88545455       0.00000000       0.00000000     599.37322998
2
Properties=species:S:1:pos:R:3:forces:R:3 energy=171.49029653628222 pbc="F F F"
Cd       0.00000000       0.00000000       0.00000000       0.00000000       0.00000000    -534.35278320
Cd       0.00000000       0.00000000       0.94424242       0.00000000       0.00000000     534.35278320
2
Properties=species:S:1:pos:R:3:forces:R:3 energy=136.13659866112542 pbc="F F F"
Cd       0.00000000       0.00000000       0.00000000       0.00000000       0.00000000    -629.78509521
Cd       0.00000000       0.00000000       1.00303030       0.00000000       0.00000000     629.78509521
2
Properties=species:S:1:pos:R:3:forces:R:3 energy=104.55932167383784 pbc="F F F"
Cd       0.00000000       0.00000000       0.00000000       0.00000000       0.00000000    -471.77334595
Cd       0.00000000       0.00000000       1.06181818       0.00000000       0.00000000     471.77334595
2
Properties=species:S:1:pos:R:3:forces:R:3 energy=91.85704506985672 pbc="F F F"
Cd       0.00000000       0.00000000       0.00000000       0.00000000       0.00000000    -212.62702942
Cd       0.00000000       0.00000000       1.12060606       0.00000000       0.00000000     212.62702942
2
Properties=species:S:1:pos:R:3:forces:R:3 energy=78.74742030190079 pbc="F F F"
Cd       0.00000000       0.00000000       0.00000000       0.00000000       0.00000000    -191.71586609
Cd       0.00000000       0.00000000       1.17939394       0.00000000       0.00000000     191.71586609
2
Properties=species:S:1:pos:R:3:forces:R:3 energy=68.26358958019104 pbc="F F F"
Cd       0.00000000       0.00000000       0.00000000       0.00000000       0.00000000    -179.48941040
Cd       0.00000000       0.00000000       1.23818182       0.00000000       0.00000000     179.48941040
2
Properties=species:S:1:pos:R:3:forces:R:3 energy=57.46246832097909 pbc="F F F"
Cd       0.00000000       0.00000000       0.00000000       0.00000000       0.00000000    -175.21174622
Cd       0.00000000       0.00000000       1.29696970       0.00000000       0.00000000     175.21174622
2
Properties=species:S:1:pos:R:3:forces:R:3 energy=48.23768003470686 pbc="F F F"
Cd       0.00000000       0.00000000       0.00000000       0.00000000       0.00000000    -144.61228943
Cd       0.00000000       0.00000000       1.35575758       0.00000000       0.00000000     144.61228943
2
Properties=species:S:1:pos:R:3:forces:R:3 energy=39.9025450586845 pbc="F F F"
Cd       0.00000000       0.00000000       0.00000000       0.00000000       0.00000000    -135.42341614
Cd       0.00000000       0.00000000       1.41454545       0.00000000       0.00000000     135.42341614
2
Properties=species:S:1:pos:R:3:forces:R:3 energy=32.60901062664046 pbc="F F F"
Cd       0.00000000       0.00000000       0.00000000       0.00000000       0.00000000    -113.88180542
Cd       0.00000000       0.00000000       1.47333333       0.00000000       0.00000000     113.88180542
2
Properties=species:S:1:pos:R:3:forces:R:3 energy=26.323532448427418 pbc="F F F"
Cd       0.00000000       0.00000000       0.00000000       0.00000000       0.00000000     -99.38227844
Cd       0.00000000       0.00000000       1.53212121       0.00000000       0.00000000      99.38227844
2
Properties=species:S:1:pos:R:3:forces:R:3 energy=21.019068398058597 pbc="F F F"
Cd       0.00000000       0.00000000       0.00000000       0.00000000       0.00000000     -82.02576447
Cd       0.00000000       0.00000000       1.59090909       0.00000000       0.00000000      82.02576447
2
Properties=species:S:1:pos:R:3:forces:R:3 energy=16.576480077832667 pbc="F F F"
Cd       0.00000000       0.00000000       0.00000000       0.00000000       0.00000000     -68.41966248
Cd       0.00000000       0.00000000       1.64969697       0.00000000       0.00000000      68.41966248
2
Properties=species:S:1:pos:R:3:forces:R:3 energy=12.921355452309964 pbc="F F F"
Cd       0.00000000       0.00000000       0.00000000       0.00000000       0.00000000     -56.25399780
Cd       0.00000000       0.00000000       1.70848485       0.00000000       0.00000000      56.25399780
2
Properties=species:S:1:pos:R:3:forces:R:3 energy=9.991092963015427 pbc="F F F"
Cd       0.00000000       0.00000000       0.00000000       0.00000000       0.00000000     -43.90950775
Cd       0.00000000       0.00000000       1.76727273       0.00000000       0.00000000      43.90950775
2
Properties=species:S:1:pos:R:3:forces:R:3 energy=7.655998442734004 pbc="F F F"
Cd       0.00000000       0.00000000       0.00000000       0.00000000       0.00000000     -35.92146301
Cd       0.00000000       0.00000000       1.82606061       0.00000000       0.00000000      35.92146301
2
Properties=species:S:1:pos:R:3:forces:R:3 energy=5.7629350867478575 pbc="F F F"
Cd       0.00000000       0.00000000       0.00000000       0.00000000       0.00000000     -28.58814621
Cd       0.00000000       0.00000000       1.88484848       0.00000000       0.00000000      28.58814621
2
Properties=species:S:1:pos:R:3:forces:R:3 energy=4.287279789316352 pbc="F F F"
Cd       0.00000000       0.00000000       0.00000000       0.00000000       0.00000000     -21.70126152
Cd       0.00000000       0.00000000       1.94363636       0.00000000       0.00000000      21.70126152
2
Properties=species:S:1:pos:R:3:forces:R:3 energy=3.1826688180755673 pbc="F F F"
Cd       0.00000000       0.00000000       0.00000000       0.00000000       0.00000000     -16.17459297
Cd       0.00000000       0.00000000       2.00242424       0.00000000       0.00000000      16.17459297
2
Properties=species:S:1:pos:R:3:forces:R:3 energy=2.354729106914676 pbc="F F F"
Cd       0.00000000       0.00000000       0.00000000       0.00000000       0.00000000     -12.20239067
Cd       0.00000000       0.00000000       2.06121212       0.00000000       0.00000000      12.20239067
2
Properties=species:S:1:pos:R:3:forces:R:3 energy=1.7308293369069219 pbc="F F F"
Cd       0.00000000       0.00000000       0.00000000       0.00000000       0.00000000      -9.14867783
Cd       0.00000000       0.00000000       2.12000000       0.00000000       0.00000000       9.14867783
2
Properties=species:S:1:pos:R:3:forces:R:3 energy=1.2611418258143756 pbc="F F F"
Cd       0.00000000       0.00000000       0.00000000       0.00000000       0.00000000      -6.97788382
Cd       0.00000000       0.00000000       2.17878788       0.00000000       0.00000000       6.97788382
2
Properties=species:S:1:pos:R:3:forces:R:3 energy=0.8996791492895994 pbc="F F F"
Cd       0.00000000       0.00000000       0.00000000       0.00000000       0.00000000      -5.37773466
Cd       0.00000000       0.00000000       2.23757576       0.00000000       0.00000000       5.37773466
2
Properties=species:S:1:pos:R:3:forces:R:3 energy=0.6204345723251619 pbc="F F F"
Cd       0.00000000       0.00000000       0.00000000       0.00000000       0.00000000      -4.19490147
Cd       0.00000000       0.00000000       2.29636364       0.00000000       0.00000000       4.19490147
2
Properties=species:S:1:pos:R:3:forces:R:3 energy=0.40058452000863987 pbc="F F F"
Cd       0.00000000       0.00000000       0.00000000       0.00000000       0.00000000      -3.31658006
Cd       0.00000000       0.00000000       2.35515152       0.00000000       0.00000000       3.31658006
2
Properties=species:S:1:pos:R:3:forces:R:3 energy=0.2270986189063111 pbc="F F F"
Cd       0.00000000       0.00000000       0.00000000       0.00000000       0.00000000      -2.61083937
Cd       0.00000000       0.00000000       2.41393939       0.00000000       0.00000000       2.61083937
2
Properties=species:S:1:pos:R:3:forces:R:3 energy=0.09114918233616517 pbc="F F F"
Cd       0.00000000       0.00000000       0.00000000       0.00000000       0.00000000      -2.03396034
Cd       0.00000000       0.00000000       2.47272727       0.00000000       0.00000000       2.03396034
2
Properties=species:S:1:pos:R:3:forces:R:3 energy=-0.014242295310624327 pbc="F F F"
Cd       0.00000000       0.00000000       0.00000000       0.00000000       0.00000000      -1.56762397
Cd       0.00000000       0.00000000       2.53151515       0.00000000       0.00000000       1.56762397
2
Properties=species:S:1:pos:R:3:forces:R:3 energy=-0.09482397370342735 pbc="F F F"
Cd       0.00000000       0.00000000       0.00000000       0.00000000       0.00000000      -1.18708885
Cd       0.00000000       0.00000000       2.59030303       0.00000000       0.00000000       1.18708885
2
Properties=species:S:1:pos:R:3:forces:R:3 energy=-0.15530681982787387 pbc="F F F"
Cd       0.00000000       0.00000000       0.00000000       0.00000000       0.00000000      -0.88206124
Cd       0.00000000       0.00000000       2.64909091       0.00000000       0.00000000       0.88206124
2
Properties=species:S:1:pos:R:3:forces:R:3 energy=-0.1996394904322832 pbc="F F F"
Cd       0.00000000       0.00000000       0.00000000       0.00000000       0.00000000      -0.63350368
Cd       0.00000000       0.00000000       2.70787879       0.00000000       0.00000000       0.63350368
2
Properties=species:S:1:pos:R:3:forces:R:3 energy=-0.2305552255467373 pbc="F F F"
Cd       0.00000000       0.00000000       0.00000000       0.00000000       0.00000000      -0.42501843
Cd       0.00000000       0.00000000       2.76666667       0.00000000       0.00000000       0.42501843
2
Properties=species:S:1:pos:R:3:forces:R:3 energy=-0.25051182410509565 pbc="F F F"
Cd       0.00000000       0.00000000       0.00000000       0.00000000       0.00000000      -0.26212993
Cd       0.00000000       0.00000000       2.82545455       0.00000000       0.00000000       0.26212993
2
Properties=species:S:1:pos:R:3:forces:R:3 energy=-0.2622812800310575 pbc="F F F"
Cd       0.00000000       0.00000000       0.00000000       0.00000000       0.00000000      -0.14486811
Cd       0.00000000       0.00000000       2.88424242       0.00000000       0.00000000       0.14486811
2
Properties=species:S:1:pos:R:3:forces:R:3 energy=-0.26815060114716954 pbc="F F F"
Cd       0.00000000       0.00000000       0.00000000       0.00000000       0.00000000      -0.05864432
Cd       0.00000000       0.00000000       2.94303030       0.00000000       0.00000000       0.05864432
2
Properties=species:S:1:pos:R:3:forces:R:3 energy=-0.26953404038730366 pbc="F F F"
Cd       0.00000000       0.00000000       0.00000000       0.00000000       0.00000000       0.00887031
Cd       0.00000000       0.00000000       3.00181818       0.00000000       0.00000000      -0.00887031
2
Properties=species:S:1:pos:R:3:forces:R:3 energy=-0.2674517371035478 pbc="F F F"
Cd       0.00000000       0.00000000       0.00000000       0.00000000       0.00000000       0.05867549
Cd       0.00000000       0.00000000       3.06060606       0.00000000       0.00000000      -0.05867549
2
Properties=species:S:1:pos:R:3:forces:R:3 energy=-0.26305424370294367 pbc="F F F"
Cd       0.00000000       0.00000000       0.00000000       0.00000000       0.00000000       0.08738868
Cd       0.00000000       0.00000000       3.11939394       0.00000000       0.00000000      -0.08738868
2
Properties=species:S:1:pos:R:3:forces:R:3 energy=-0.2575318873835182 pbc="F F F"
Cd       0.00000000       0.00000000       0.00000000       0.00000000       0.00000000       0.09820659
Cd       0.00000000       0.00000000       3.17818182       0.00000000       0.00000000      -0.09820659
2
Properties=species:S:1:pos:R:3:forces:R:3 energy=-0.2516819010594431 pbc="F F F"
Cd       0.00000000       0.00000000       0.00000000       0.00000000       0.00000000       0.09998397
Cd       0.00000000       0.00000000       3.23696970       0.00000000       0.00000000      -0.09998397
2
Properties=species:S:1:pos:R:3:forces:R:3 energy=-0.2458260361699187 pbc="F F F"
Cd       0.00000000       0.00000000       0.00000000       0.00000000       0.00000000       0.09905401
Cd       0.00000000       0.00000000       3.29575758       0.00000000       0.00000000      -0.09905401
2
Properties=species:S:1:pos:R:3:forces:R:3 energy=-0.2400527809553345 pbc="F F F"
Cd       0.00000000       0.00000000       0.00000000       0.00000000       0.00000000       0.09720741
Cd       0.00000000       0.00000000       3.35454545       0.00000000       0.00000000      -0.09720741
2
Properties=species:S:1:pos:R:3:forces:R:3 energy=-0.23441546089557508 pbc="F F F"
Cd       0.00000000       0.00000000       0.00000000       0.00000000       0.00000000       0.09440912
Cd       0.00000000       0.00000000       3.41333333       0.00000000       0.00000000      -0.09440912
2
Properties=species:S:1:pos:R:3:forces:R:3 energy=-0.22896814667531057 pbc="F F F"
Cd       0.00000000       0.00000000       0.00000000       0.00000000       0.00000000       0.09083491
Cd       0.00000000       0.00000000       3.47212121       0.00000000       0.00000000      -0.09083491
2
Properties=species:S:1:pos:R:3:forces:R:3 energy=-0.22373730392477326 pbc="F F F"
Cd       0.00000000       0.00000000       0.00000000       0.00000000       0.00000000       0.08717528
Cd       0.00000000       0.00000000       3.53090909       0.00000000       0.00000000      -0.08717528
2
Properties=species:S:1:pos:R:3:forces:R:3 energy=-0.21870712415783305 pbc="F F F"
Cd       0.00000000       0.00000000       0.00000000       0.00000000       0.00000000       0.08406184
Cd       0.00000000       0.00000000       3.58969697       0.00000000       0.00000000      -0.08406184
2
Properties=species:S:1:pos:R:3:forces:R:3 energy=-0.21383964730334043 pbc="F F F"
Cd       0.00000000       0.00000000       0.00000000       0.00000000       0.00000000       0.08164073
Cd       0.00000000       0.00000000       3.64848485       0.00000000       0.00000000      -0.08164073
2
Properties=species:S:1:pos:R:3:forces:R:3 energy=-0.20909967878254673 pbc="F F F"
Cd       0.00000000       0.00000000       0.00000000       0.00000000       0.00000000       0.07966136
Cd       0.00000000       0.00000000       3.70727273       0.00000000       0.00000000      -0.07966136
2
Properties=species:S:1:pos:R:3:forces:R:3 energy=-0.20447157184443557 pbc="F F F"
Cd       0.00000000       0.00000000       0.00000000       0.00000000       0.00000000       0.07778327
Cd       0.00000000       0.00000000       3.76606061       0.00000000       0.00000000      -0.07778327
2
Properties=species:S:1:pos:R:3:forces:R:3 energy=-0.1999570711270925 pbc="F F F"
Cd       0.00000000       0.00000000       0.00000000       0.00000000       0.00000000       0.07576573
Cd       0.00000000       0.00000000       3.82484848       0.00000000       0.00000000      -0.07576573
2
Properties=species:S:1:pos:R:3:forces:R:3 energy=-0.19556879332872731 pbc="F F F"
Cd       0.00000000       0.00000000       0.00000000       0.00000000       0.00000000       0.07346952
Cd       0.00000000       0.00000000       3.88363636       0.00000000       0.00000000      -0.07346952
2
Properties=species:S:1:pos:R:3:forces:R:3 energy=-0.19132631313997003 pbc="F F F"
Cd       0.00000000       0.00000000       0.00000000       0.00000000       0.00000000       0.07078989
Cd       0.00000000       0.00000000       3.94242424       0.00000000       0.00000000      -0.07078989
2
Properties=species:S:1:pos:R:3:forces:R:3 energy=-0.18725484360617128 pbc="F F F"
Cd       0.00000000       0.00000000       0.00000000       0.00000000       0.00000000       0.06763996
Cd       0.00000000       0.00000000       4.00121212       0.00000000       0.00000000      -0.06763996
2
Properties=species:S:1:pos:R:3:forces:R:3 energy=-0.18338274623552828 pbc="F F F"
Cd       0.00000000       0.00000000       0.00000000       0.00000000       0.00000000       0.06401279
Cd       0.00000000       0.00000000       4.06000000       0.00000000       0.00000000      -0.06401279
2
Properties=species:S:1:pos:R:3:forces:R:3 energy=-0.179735108704642 pbc="F F F"
Cd       0.00000000       0.00000000       0.00000000       0.00000000       0.00000000       0.06004280
Cd       0.00000000       0.00000000       4.11878788       0.00000000       0.00000000      -0.06004280
2
Properties=species:S:1:pos:R:3:forces:R:3 energy=-0.1763251202719474 pbc="F F F"
Cd       0.00000000       0.00000000       0.00000000       0.00000000       0.00000000       0.05598500
Cd       0.00000000       0.00000000       4.17757576       0.00000000       0.00000000      -0.05598500
2
Properties=species:S:1:pos:R:3:forces:R:3 energy=-0.17314898379212862 pbc="F F F"
Cd       0.00000000       0.00000000       0.00000000       0.00000000       0.00000000       0.05212311
Cd       0.00000000       0.00000000       4.23636364       0.00000000       0.00000000      -0.05212311
2
Properties=species:S:1:pos:R:3:forces:R:3 energy=-0.17018825438444768 pbc="F F F"
Cd       0.00000000       0.00000000       0.00000000       0.00000000       0.00000000       0.04867879
Cd       0.00000000       0.00000000       4.29515152       0.00000000       0.00000000      -0.04867879
2
Properties=species:S:1:pos:R:3:forces:R:3 energy=-0.16741483671943935 pbc="F F F"
Cd       0.00000000       0.00000000       0.00000000       0.00000000       0.00000000       0.04577111
Cd       0.00000000       0.00000000       4.35393939       0.00000000       0.00000000      -0.04577111
2
Properties=species:S:1:pos:R:3:forces:R:3 energy=-0.16479601047997103 pbc="F F F"
Cd       0.00000000       0.00000000       0.00000000       0.00000000       0.00000000       0.04341886
Cd       0.00000000       0.00000000       4.41272727       0.00000000       0.00000000      -0.04341886
2
Properties=species:S:1:pos:R:3:forces:R:3 energy=-0.1623001682462519 pbc="F F F"
Cd       0.00000000       0.00000000       0.00000000       0.00000000       0.00000000       0.04156233
Cd       0.00000000       0.00000000       4.47151515       0.00000000       0.00000000      -0.04156233
2
Properties=species:S:1:pos:R:3:forces:R:3 energy=-0.1599016892374639 pbc="F F F"
Cd       0.00000000       0.00000000       0.00000000       0.00000000       0.00000000       0.04008601
Cd       0.00000000       0.00000000       4.53030303       0.00000000       0.00000000      -0.04008601
2
Properties=species:S:1:pos:R:3:forces:R:3 energy=-0.15758233380924058 pbc="F F F"
Cd       0.00000000       0.00000000       0.00000000       0.00000000       0.00000000       0.03884427
Cd       0.00000000       0.00000000       4.58909091       0.00000000       0.00000000      -0.03884427
2
Properties=species:S:1:pos:R:3:forces:R:3 energy=-0.15533293022270167 pbc="F F F"
Cd       0.00000000       0.00000000       0.00000000       0.00000000       0.00000000       0.03769173
Cd       0.00000000       0.00000000       4.64787879       0.00000000       0.00000000      -0.03769173
2
Properties=species:S:1:pos:R:3:forces:R:3 energy=-0.15315122887724114 pbc="F F F"
Cd       0.00000000       0.00000000       0.00000000       0.00000000       0.00000000       0.03651414
Cd       0.00000000       0.00000000       4.70666667       0.00000000       0.00000000      -0.03651414
2
Properties=species:S:1:pos:R:3:forces:R:3 energy=-0.15104139896283977 pbc="F F F"
Cd       0.00000000       0.00000000       0.00000000       0.00000000       0.00000000       0.03525386
Cd       0.00000000       0.00000000       4.76545455       0.00000000       0.00000000      -0.03525386
2
Properties=species:S:1:pos:R:3:forces:R:3 energy=-0.1490078580874078 pbc="F F F"
Cd       0.00000000       0.00000000       0.00000000       0.00000000       0.00000000       0.03391713
Cd       0.00000000       0.00000000       4.82424242       0.00000000       0.00000000      -0.03391713
2
Properties=species:S:1:pos:R:3:forces:R:3 energy=-0.14705405642522337 pbc="F F F"
Cd       0.00000000       0.00000000       0.00000000       0.00000000       0.00000000       0.03256297
Cd       0.00000000       0.00000000       4.88303030       0.00000000       0.00000000      -0.03256297
2
Properties=species:S:1:pos:R:3:forces:R:3 energy=-0.14517777686948563 pbc="F F F"
Cd       0.00000000       0.00000000       0.00000000       0.00000000       0.00000000       0.03127407
Cd       0.00000000       0.00000000       4.94181818       0.00000000       0.00000000      -0.03127407
2
Properties=species:S:1:pos:R:3:forces:R:3 energy=-0.14337406416344012 pbc="F F F"
Cd       0.00000000       0.00000000       0.00000000       0.00000000       0.00000000       0.03012140
Cd       0.00000000       0.00000000       5.00060606       0.00000000       0.00000000      -0.03012140
2
Properties=species:S:1:pos:R:3:forces:R:3 energy=-0.14163325694716622 pbc="F F F"
Cd       0.00000000       0.00000000       0.00000000       0.00000000       0.00000000       0.02913645
Cd       0.00000000       0.00000000       5.05939394       0.00000000       0.00000000      -0.02913645
2
Properties=species:S:1:pos:R:3:forces:R:3 energy=-0.1399453573196025 pbc="F F F"
Cd       0.00000000       0.00000000       0.00000000       0.00000000       0.00000000       0.02829608
Cd       0.00000000       0.00000000       5.11818182       0.00000000       0.00000000      -0.02829608
2
Properties=species:S:1:pos:R:3:forces:R:3 energy=-0.1383049005804376 pbc="F F F"
Cd       0.00000000       0.00000000       0.00000000       0.00000000       0.00000000       0.02752742
Cd       0.00000000       0.00000000       5.17696970       0.00000000       0.00000000      -0.02752742
2
Properties=species:S:1:pos:R:3:forces:R:3 energy=-0.13670968510961298 pbc="F F F"
Cd       0.00000000       0.00000000       0.00000000       0.00000000       0.00000000       0.02672469
Cd       0.00000000       0.00000000       5.23575758       0.00000000       0.00000000      -0.02672469
2
Properties=species:S:1:pos:R:3:forces:R:3 energy=-0.13516547538259205 pbc="F F F"
Cd       0.00000000       0.00000000       0.00000000       0.00000000       0.00000000       0.02577582
Cd       0.00000000       0.00000000       5.29454545       0.00000000       0.00000000      -0.02577582
2
Properties=species:S:1:pos:R:3:forces:R:3 energy=-0.13368368272492304 pbc="F F F"
Cd       0.00000000       0.00000000       0.00000000       0.00000000       0.00000000       0.02458788
Cd       0.00000000       0.00000000       5.35333333       0.00000000       0.00000000      -0.02458788
2
Properties=species:S:1:pos:R:3:forces:R:3 energy=-0.13228018272281006 pbc="F F F"
Cd       0.00000000       0.00000000       0.00000000       0.00000000       0.00000000       0.02310977
Cd       0.00000000       0.00000000       5.41212121       0.00000000       0.00000000      -0.02310977
2
Properties=species:S:1:pos:R:3:forces:R:3 energy=-0.13097207556549217 pbc="F F F"
Cd       0.00000000       0.00000000       0.00000000       0.00000000       0.00000000       0.02134542
Cd       0.00000000       0.00000000       5.47090909       0.00000000       0.00000000      -0.02134542
2
Properties=species:S:1:pos:R:3:forces:R:3 energy=-0.12977508323976175 pbc="F F F"
Cd       0.00000000       0.00000000       0.00000000       0.00000000       0.00000000       0.01935377
Cd       0.00000000       0.00000000       5.52969697       0.00000000       0.00000000      -0.01935377
2
Properties=species:S:1:pos:R:3:forces:R:3 energy=-0.1286990520471386 pbc="F F F"
Cd       0.00000000       0.00000000       0.00000000       0.00000000       0.00000000       0.01724172
Cd       0.00000000       0.00000000       5.58848485       0.00000000       0.00000000      -0.01724172
2
Properties=species:S:1:pos:R:3:forces:R:3 energy=-0.12774779179693338 pbc="F F F"
Cd       0.00000000       0.00000000       0.00000000       0.00000000       0.00000000       0.01514481
Cd       0.00000000       0.00000000       5.64727273       0.00000000       0.00000000      -0.01514481
2
Properties=species:S:1:pos:R:3:forces:R:3 energy=-0.12691548052062826 pbc="F F F"
Cd       0.00000000       0.00000000       0.00000000       0.00000000       0.00000000       0.01320170
Cd       0.00000000       0.00000000       5.70606061       0.00000000       0.00000000      -0.01320170
2
Properties=species:S:1:pos:R:3:forces:R:3 energy=-0.12618969301340344 pbc="F F F"
Cd       0.00000000       0.00000000       0.00000000       0.00000000       0.00000000       0.01152596
Cd       0.00000000       0.00000000       5.76484848       0.00000000       0.00000000      -0.01152596
2
Properties=species:S:1:pos:R:3:forces:R:3 energy=-0.12555372045557067 pbc="F F F"
Cd       0.00000000       0.00000000       0.00000000       0.00000000       0.00000000       0.01018817
Cd       0.00000000       0.00000000       5.82363636       0.00000000       0.00000000      -0.01018817
2
Properties=species:S:1:pos:R:3:forces:R:3 energy=-0.12498534505754516 pbc="F F F"
Cd       0.00000000       0.00000000       0.00000000       0.00000000       0.00000000       0.00919620
Cd       0.00000000       0.00000000       5.88242424       0.00000000       0.00000000      -0.00919620
2
Properties=species:S:1:pos:R:3:forces:R:3 energy=-0.12446630669496345 pbc="F F F"
Cd       0.00000000       0.00000000       0.00000000       0.00000000       0.00000000       0.00849412
Cd       0.00000000       0.00000000       5.94121212       0.00000000       0.00000000      -0.00849412
2
Properties=species:S:1:pos:R:3:forces:R:3 energy=-0.12398303083570919 pbc="F F F"
Cd       0.00000000       0.00000000       0.00000000       0.00000000       0.00000000       0.00797041
Cd       0.00000000       0.00000000       6.00000000       0.00000000       0.00000000      -0.00797041
