2
Properties=species:S:1:pos:R:3:forces:R:3 energy=-1822846.1495239676 pbc="F F F"
Ce       0.00000000       0.00000000       0.00000000       0.00000000       0.00000000 14689482.00000000
Ce       0.00000000       0.00000000       0.18000000       0.00000000       0.00000000 -14689482.00000000
2
Properties=species:S:1:pos:R:3:forces:R:3 energy=-1013703.0870239676 pbc="F F F"
Ce       0.00000000       0.00000000       0.00000000       0.00000000       0.00000000 12159045.00000000
Ce       0.00000000       0.00000000       0.23878788       0.00000000       0.00000000 -12159045.00000000
2
Properties=species:S:1:pos:R:3:forces:R:3 energy=-434099.7432739676 pbc="F F F"
Ce       0.00000000       0.00000000       0.00000000       0.00000000       0.00000000 7469269.50000000
Ce       0.00000000       0.00000000       0.29757576       0.00000000       0.00000000 -7469269.50000000
2
Properties=species:S:1:pos:R:3:forces:R:3 energy=-130140.92296146759 pbc="F F F"
Ce       0.00000000       0.00000000       0.00000000       0.00000000       0.00000000 3085013.75000000
Ce       0.00000000       0.00000000       0.35636364       0.00000000       0.00000000 -3085013.75000000
2
Properties=species:S:1:pos:R:3:forces:R:3 energy=-20200.24913334259 pbc="F F F"
Ce       0.00000000       0.00000000       0.00000000       0.00000000       0.00000000  837502.37500000
Ce       0.00000000       0.00000000       0.41515152       0.00000000       0.00000000 -837502.37500000
2
Properties=species:S:1:pos:R:3:forces:R:3 energy=-535.5471069738197 pbc="F F F"
Ce       0.00000000       0.00000000       0.00000000       0.00000000       0.00000000   58127.85156250
Ce       0.00000000       0.00000000       0.47393939       0.00000000       0.00000000  -58127.85156250
2
Properties=species:S:1:pos:R:3:forces:R:3 energy=21.57160068779242 pbc="F F F"
Ce       0.00000000       0.00000000       0.00000000       0.00000000       0.00000000    -770.13562012
Ce       0.00000000       0.00000000       0.53272727       0.00000000       0.00000000     770.13562012
2
Properties=species:S:1:pos:R:3:forces:R:3 energy=332.6864745770686 pbc="F F F"
Ce       0.00000000       0.00000000       0.00000000       0.00000000       0.00000000   -5015.00683594
Ce       0.00000000       0.00000000       0.59151515       0.00000000       0.00000000    5015.00683594
2
Properties=species:S:1:pos:R:3:forces:R:3 energy=48.540554783599596 pbc="F F F"
Ce       0.00000000       0.00000000       0.00000000       0.00000000       0.00000000   -2601.60864258
Ce       0.00000000       0.00000000       0.65030303       0.00000000       0.00000000    2601.60864258
2
Properties=species:S:1:pos:R:3:forces:R:3 energy=-13.975086414608585 pbc="F F F"
Ce       0.00000000       0.00000000       0.00000000       0.00000000       0.00000000    -230.30999756
Ce       0.00000000       0.00000000       0.70909091       0.00000000       0.00000000     230.30999756
2
Properties=species:S:1:pos:R:3:forces:R:3 energy=-17.03882903481984 pbc="F F F"
Ce       0.00000000       0.00000000       0.00000000       0.00000000       0.00000000      25.26337051
Ce       0.00000000       0.00000000       0.76787879       0.00000000       0.00000000     -25.26337051
2
Properties=species:S:1:pos:R:3:forces:R:3 energy=-15.07782856697238 pbc="F F F"
Ce       0.00000000       0.00000000       0.00000000       0.00000000       0.00000000      17.25898743
Ce       0.00000000       0.00000000       0.82666667       0.00000000       0.00000000     -17.25898743
2
Properties=species:S:1:pos:R:3:forces:R:3 energy=-14.581882595309734 pbc="F F F"
Ce       0.00000000       0.00000000       0.00000000       0.00000000       0.00000000      28.48737144
Ce       0.00000000       0.00000000       0.88545455       0.00000000       0.00000000     -28.48737144
2
Properties=species:S:1:pos:R:3:forces:R:3 energy=-12.14748484717585 pbc="F F F"
Ce       0.00000000       0.00000000       0.00000000       0.00000000       0.00000000      46.41535187
Ce       0.00000000       0.00000000       0.94424242       0.00000000       0.00000000     -46.41535187
2
Properties=species:S:1:pos:R:3:forces:R:3 energy=-8.835184092248069 pbc="F F F"
Ce       0.00000000       0.00000000       0.00000000       0.00000000       0.00000000      68.85803223
Ce       0.00000000       0.00000000       1.00303030       0.00000000       0.00000000     -68.85803223
2
Properties=species:S:1:pos:R:3:forces:R:3 energy=-4.478568925933351 pbc="F F F"
Ce       0.00000000       0.00000000       0.00000000       0.00000000       0.00000000      68.34231567
Ce       0.00000000       0.00000000       1.06181818       0.00000000       0.00000000     -68.34231567
2
Properties=species:S:1:pos:R:3:forces:R:3 energy=-0.7868773974320379 pbc="F F F"
Ce       0.00000000       0.00000000       0.00000000       0.00000000       0.00000000      65.47055054
Ce       0.00000000       0.00000000       1.12060606       0.00000000       0.00000000     -65.47055054
2
Properties=species:S:1:pos:R:3:forces:R:3 energy=2.5058054213354364 pbc="F F F"
Ce       0.00000000       0.00000000       0.00000000       0.00000000       0.00000000      34.49968338
Ce       0.00000000       0.00000000       1.17939394       0.00000000       0.00000000     -34.49968338
2
Properties=species:S:1:pos:R:3:forces:R:3 energy=6.94056096998428 pbc="F F F"
Ce       0.00000000       0.00000000       0.00000000       0.00000000       0.00000000      90.77239227
Ce       0.00000000       0.00000000       1.23818182       0.00000000       0.00000000     -90.77239227
2
Properties=species:S:1:pos:R:3:forces:R:3 energy=10.04557414718112 pbc="F F F"
Ce       0.00000000       0.00000000       0.00000000       0.00000000       0.00000000      20.75389862
Ce       0.00000000       0.00000000       1.29696970       0.00000000       0.00000000     -20.75389862
2
Properties=species:S:1:pos:R:3:forces:R:3 energy=10.517181714980888 pbc="F F F"
Ce       0.00000000       0.00000000       0.00000000       0.00000000       0.00000000      -0.48364565
Ce       0.00000000       0.00000000       1.35575758       0.00000000       0.00000000       0.48364565
2
Properties=species:S:1:pos:R:3:forces:R:3 energy=9.963841252946398 pbc="F F F"
Ce       0.00000000       0.00000000       0.00000000       0.00000000       0.00000000     -18.48961258
Ce       0.00000000       0.00000000       1.41454545       0.00000000       0.00000000      18.48961258
2
Properties=species:S:1:pos:R:3:forces:R:3 energy=8.710309400815127 pbc="F F F"
Ce       0.00000000       0.00000000       0.00000000       0.00000000       0.00000000     -19.75681305
Ce       0.00000000       0.00000000       1.47333333       0.00000000       0.00000000      19.75681305
2
Properties=species:S:1:pos:R:3:forces:R:3 energy=7.85370646579601 pbc="F F F"
Ce       0.00000000       0.00000000       0.00000000       0.00000000       0.00000000     -10.74575996
Ce       0.00000000       0.00000000       1.53212121       0.00000000       0.00000000      10.74575996
2
Properties=species:S:1:pos:R:3:forces:R:3 energy=7.293463698701497 pbc="F F F"
Ce       0.00000000       0.00000000       0.00000000       0.00000000       0.00000000      -9.52084446
Ce       0.00000000       0.00000000       1.59090909       0.00000000       0.00000000       9.52084446
2
Properties=species:S:1:pos:R:3:forces:R:3 energy=6.659708082750897 pbc="F F F"
Ce       0.00000000       0.00000000       0.00000000       0.00000000       0.00000000     -12.11257839
Ce       0.00000000       0.00000000       1.64969697       0.00000000       0.00000000      12.11257839
2
Properties=species:S:1:pos:R:3:forces:R:3 energy=5.72268233749465 pbc="F F F"
Ce       0.00000000       0.00000000       0.00000000       0.00000000       0.00000000     -20.74641991
Ce       0.00000000       0.00000000       1.70848485       0.00000000       0.00000000      20.74641991
2
Properties=species:S:1:pos:R:3:forces:R:3 energy=4.320948507913638 pbc="F F F"
Ce       0.00000000       0.00000000       0.00000000       0.00000000       0.00000000     -25.88885307
Ce       0.00000000       0.00000000       1.76727273       0.00000000       0.00000000      25.88885307
2
Properties=species:S:1:pos:R:3:forces:R:3 energy=2.717970610772484 pbc="F F F"
Ce       0.00000000       0.00000000       0.00000000       0.00000000       0.00000000     -28.47217751
Ce       0.00000000       0.00000000       1.82606061       0.00000000       0.00000000      28.47217751
2
Properties=species:S:1:pos:R:3:forces:R:3 energy=0.9940213618134217 pbc="F F F"
Ce       0.00000000       0.00000000       0.00000000       0.00000000       0.00000000     -29.81136894
Ce       0.00000000       0.00000000       1.88484848       0.00000000       0.00000000      29.81136894
2
Properties=species:S:1:pos:R:3:forces:R:3 energy=-0.7405972184267579 pbc="F F F"
Ce       0.00000000       0.00000000       0.00000000       0.00000000       0.00000000     -28.61337662
Ce       0.00000000       0.00000000       1.94363636       0.00000000       0.00000000      28.61337662
2
Properties=species:S:1:pos:R:3:forces:R:3 energy=-2.3153824071007425 pbc="F F F"
Ce       0.00000000       0.00000000       0.00000000       0.00000000       0.00000000     -24.70235252
Ce       0.00000000       0.00000000       2.00242424       0.00000000       0.00000000      24.70235252
2
Properties=species:S:1:pos:R:3:forces:R:3 energy=-3.644527298985171 pbc="F F F"
Ce       0.00000000       0.00000000       0.00000000       0.00000000       0.00000000     -20.51498413
Ce       0.00000000       0.00000000       2.06121212       0.00000000       0.00000000      20.51498413
2
Properties=species:S:1:pos:R:3:forces:R:3 energy=-4.705992412519717 pbc="F F F"
Ce       0.00000000       0.00000000       0.00000000       0.00000000       0.00000000     -15.46959496
Ce       0.00000000       0.00000000       2.12000000       0.00000000       0.00000000      15.46959496
2
Properties=species:S:1:pos:R:3:forces:R:3 energy=-5.479610320907608 pbc="F F F"
Ce       0.00000000       0.00000000       0.00000000       0.00000000       0.00000000     -11.12002087
Ce       0.00000000       0.00000000       2.17878788       0.00000000       0.00000000      11.12002087
2
Properties=species:S:1:pos:R:3:forces:R:3 energy=-6.031209261981902 pbc="F F F"
Ce       0.00000000       0.00000000       0.00000000       0.00000000       0.00000000      -7.71049690
Ce       0.00000000       0.00000000       2.23757576       0.00000000       0.00000000       7.71049690
2
Properties=species:S:1:pos:R:3:forces:R:3 energy=-6.400303687085647 pbc="F F F"
Ce       0.00000000       0.00000000       0.00000000       0.00000000       0.00000000      -4.98577452
Ce       0.00000000       0.00000000       2.29636364       0.00000000       0.00000000       4.98577452
2
Properties=species:S:1:pos:R:3:forces:R:3 energy=-6.628008300393526 pbc="F F F"
Ce       0.00000000       0.00000000       0.00000000       0.00000000       0.00000000      -2.82514954
Ce       0.00000000       0.00000000       2.35515152       0.00000000       0.00000000       2.82514954
2
Properties=species:S:1:pos:R:3:forces:R:3 energy=-6.7420491612648235 pbc="F F F"
Ce       0.00000000       0.00000000       0.00000000       0.00000000       0.00000000      -1.14158642
Ce       0.00000000       0.00000000       2.41393939       0.00000000       0.00000000       1.14158642
2
Properties=species:S:1:pos:R:3:forces:R:3 energy=-6.771109810152936 pbc="F F F"
Ce       0.00000000       0.00000000       0.00000000       0.00000000       0.00000000       0.08550745
Ce       0.00000000       0.00000000       2.47272727       0.00000000       0.00000000      -0.08550745
2
Properties=species:S:1:pos:R:3:forces:R:3 energy=-6.738928023002912 pbc="F F F"
Ce       0.00000000       0.00000000       0.00000000       0.00000000       0.00000000       0.95663482
Ce       0.00000000       0.00000000       2.53151515       0.00000000       0.00000000      -0.95663482
2
Properties=species:S:1:pos:R:3:forces:R:3 energy=-6.665419231676624 pbc="F F F"
Ce       0.00000000       0.00000000       0.00000000       0.00000000       0.00000000       1.48006666
Ce       0.00000000       0.00000000       2.59030303       0.00000000       0.00000000      -1.48006666
2
Properties=species:S:1:pos:R:3:forces:R:3 energy=-6.571989448321195 pbc="F F F"
Ce       0.00000000       0.00000000       0.00000000       0.00000000       0.00000000       1.64984536
Ce       0.00000000       0.00000000       2.64909091       0.00000000       0.00000000      -1.64984536
2
Properties=species:S:1:pos:R:3:forces:R:3 energy=-6.475283938144518 pbc="F F F"
Ce       0.00000000       0.00000000       0.00000000       0.00000000       0.00000000       1.62142122
Ce       0.00000000       0.00000000       2.70787879       0.00000000       0.00000000      -1.62142122
2
Properties=species:S:1:pos:R:3:forces:R:3 energy=-6.3825990685203555 pbc="F F F"
Ce       0.00000000       0.00000000       0.00000000       0.00000000       0.00000000       1.52537775
Ce       0.00000000       0.00000000       2.76666667       0.00000000       0.00000000      -1.52537775
2
Properties=species:S:1:pos:R:3:forces:R:3 energy=-6.296627819313265 pbc="F F F"
Ce       0.00000000       0.00000000       0.00000000       0.00000000       0.00000000       1.39323759
Ce       0.00000000       0.00000000       2.82545455       0.00000000       0.00000000      -1.39323759
2
Properties=species:S:1:pos:R:3:forces:R:3 energy=-6.219530991608852 pbc="F F F"
Ce       0.00000000       0.00000000       0.00000000       0.00000000       0.00000000       1.22368526
Ce       0.00000000       0.00000000       2.88424242       0.00000000       0.00000000      -1.22368526
2
Properties=species:S:1:pos:R:3:forces:R:3 energy=-6.1532900909695005 pbc="F F F"
Ce       0.00000000       0.00000000       0.00000000       0.00000000       0.00000000       1.02755225
Ce       0.00000000       0.00000000       2.94303030       0.00000000       0.00000000      -1.02755225
2
Properties=species:S:1:pos:R:3:forces:R:3 energy=-6.098636329002301 pbc="F F F"
Ce       0.00000000       0.00000000       0.00000000       0.00000000       0.00000000       0.83514100
Ce       0.00000000       0.00000000       3.00181818       0.00000000       0.00000000      -0.83514100
2
Properties=species:S:1:pos:R:3:forces:R:3 energy=-6.0545804730084365 pbc="F F F"
Ce       0.00000000       0.00000000       0.00000000       0.00000000       0.00000000       0.66755438
Ce       0.00000000       0.00000000       3.06060606       0.00000000       0.00000000      -0.66755438
2
Properties=species:S:1:pos:R:3:forces:R:3 energy=-6.0199320523370385 pbc="F F F"
Ce       0.00000000       0.00000000       0.00000000       0.00000000       0.00000000       0.51103163
Ce       0.00000000       0.00000000       3.11939394       0.00000000       0.00000000      -0.51103163
2
Properties=species:S:1:pos:R:3:forces:R:3 energy=-5.994594433851667 pbc="F F F"
Ce       0.00000000       0.00000000       0.00000000       0.00000000       0.00000000       0.35046244
Ce       0.00000000       0.00000000       3.17818182       0.00000000       0.00000000      -0.35046244
2
Properties=species:S:1:pos:R:3:forces:R:3 energy=-5.978639770514689 pbc="F F F"
Ce       0.00000000       0.00000000       0.00000000       0.00000000       0.00000000       0.19450451
Ce       0.00000000       0.00000000       3.23696970       0.00000000       0.00000000      -0.19450451
2
Properties=species:S:1:pos:R:3:forces:R:3 energy=-5.9713305204512634 pbc="F F F"
Ce       0.00000000       0.00000000       0.00000000       0.00000000       0.00000000       0.05840329
Ce       0.00000000       0.00000000       3.29575758       0.00000000       0.00000000      -0.05840329
2
Properties=species:S:1:pos:R:3:forces:R:3 energy=-5.971218641749538 pbc="F F F"
Ce       0.00000000       0.00000000       0.00000000       0.00000000       0.00000000      -0.04979223
Ce       0.00000000       0.00000000       3.35454545       0.00000000       0.00000000       0.04979223
2
Properties=species:S:1:pos:R:3:forces:R:3 energy=-5.976646255637655 pbc="F F F"
Ce       0.00000000       0.00000000       0.00000000       0.00000000       0.00000000      -0.13052838
Ce       0.00000000       0.00000000       3.41333333       0.00000000       0.00000000       0.13052838
2
Properties=species:S:1:pos:R:3:forces:R:3 energy=-5.986088988244581 pbc="F F F"
Ce       0.00000000       0.00000000       0.00000000       0.00000000       0.00000000      -0.18672341
Ce       0.00000000       0.00000000       3.47212121       0.00000000       0.00000000       0.18672341
2
Properties=species:S:1:pos:R:3:forces:R:3 energy=-5.998133060241769 pbc="F F F"
Ce       0.00000000       0.00000000       0.00000000       0.00000000       0.00000000      -0.21901934
Ce       0.00000000       0.00000000       3.53090909       0.00000000       0.00000000       0.21901934
2
Properties=species:S:1:pos:R:3:forces:R:3 energy=-6.011379941586267 pbc="F F F"
Ce       0.00000000       0.00000000       0.00000000       0.00000000       0.00000000      -0.22801788
Ce       0.00000000       0.00000000       3.58969697       0.00000000       0.00000000       0.22801788
2
Properties=species:S:1:pos:R:3:forces:R:3 energy=-6.024553150372869 pbc="F F F"
Ce       0.00000000       0.00000000       0.00000000       0.00000000       0.00000000      -0.21738955
Ce       0.00000000       0.00000000       3.64848485       0.00000000       0.00000000       0.21738955
2
Properties=species:S:1:pos:R:3:forces:R:3 energy=-6.036672791073123 pbc="F F F"
Ce       0.00000000       0.00000000       0.00000000       0.00000000       0.00000000      -0.19308107
Ce       0.00000000       0.00000000       3.70727273       0.00000000       0.00000000       0.19308107
2
Properties=species:S:1:pos:R:3:forces:R:3 energy=-6.047098444537001 pbc="F F F"
Ce       0.00000000       0.00000000       0.00000000       0.00000000       0.00000000      -0.16066997
Ce       0.00000000       0.00000000       3.76606061       0.00000000       0.00000000       0.16066997
2
Properties=species:S:1:pos:R:3:forces:R:3 energy=-6.055480562280975 pbc="F F F"
Ce       0.00000000       0.00000000       0.00000000       0.00000000       0.00000000      -0.12384153
Ce       0.00000000       0.00000000       3.82484848       0.00000000       0.00000000       0.12384153
2
Properties=species:S:1:pos:R:3:forces:R:3 energy=-6.061610733284704 pbc="F F F"
Ce       0.00000000       0.00000000       0.00000000       0.00000000       0.00000000      -0.08448063
Ce       0.00000000       0.00000000       3.88363636       0.00000000       0.00000000       0.08448063
2
Properties=species:S:1:pos:R:3:forces:R:3 energy=-6.065380660156313 pbc="F F F"
Ce       0.00000000       0.00000000       0.00000000       0.00000000       0.00000000      -0.04352136
Ce       0.00000000       0.00000000       3.94242424       0.00000000       0.00000000       0.04352136
2
Properties=species:S:1:pos:R:3:forces:R:3 energy=-6.066712578921163 pbc="F F F"
Ce       0.00000000       0.00000000       0.00000000       0.00000000       0.00000000      -0.00169375
Ce       0.00000000       0.00000000       4.00121212       0.00000000       0.00000000       0.00169375
2
Properties=species:S:1:pos:R:3:forces:R:3 energy=-6.065578307165601 pbc="F F F"
Ce       0.00000000       0.00000000       0.00000000       0.00000000       0.00000000       0.04013414
Ce       0.00000000       0.00000000       4.06000000       0.00000000       0.00000000      -0.04013414
2
Properties=species:S:1:pos:R:3:forces:R:3 energy=-6.062011657642186 pbc="F F F"
Ce       0.00000000       0.00000000       0.00000000       0.00000000       0.00000000       0.08091553
Ce       0.00000000       0.00000000       4.11878788       0.00000000       0.00000000      -0.08091553
2
Properties=species:S:1:pos:R:3:forces:R:3 energy=-6.056107495682748 pbc="F F F"
Ce       0.00000000       0.00000000       0.00000000       0.00000000       0.00000000       0.11949074
Ce       0.00000000       0.00000000       4.17757576       0.00000000       0.00000000      -0.11949074
2
Properties=species:S:1:pos:R:3:forces:R:3 energy=-6.048029363841188 pbc="F F F"
Ce       0.00000000       0.00000000       0.00000000       0.00000000       0.00000000       0.15466778
Ce       0.00000000       0.00000000       4.23636364       0.00000000       0.00000000      -0.15466778
2
Properties=species:S:1:pos:R:3:forces:R:3 energy=-6.038008544058268 pbc="F F F"
Ce       0.00000000       0.00000000       0.00000000       0.00000000       0.00000000       0.18535013
Ce       0.00000000       0.00000000       4.29515152       0.00000000       0.00000000      -0.18535013
2
Properties=species:S:1:pos:R:3:forces:R:3 energy=-6.026341196638668 pbc="F F F"
Ce       0.00000000       0.00000000       0.00000000       0.00000000       0.00000000       0.21071459
Ce       0.00000000       0.00000000       4.35393939       0.00000000       0.00000000      -0.21071459
2
Properties=species:S:1:pos:R:3:forces:R:3 energy=-6.01334831384925 pbc="F F F"
Ce       0.00000000       0.00000000       0.00000000       0.00000000       0.00000000       0.23037417
Ce       0.00000000       0.00000000       4.41272727       0.00000000       0.00000000      -0.23037417
2
Properties=species:S:1:pos:R:3:forces:R:3 energy=-5.999365250092418 pbc="F F F"
Ce       0.00000000       0.00000000       0.00000000       0.00000000       0.00000000       0.24447128
Ce       0.00000000       0.00000000       4.47151515       0.00000000       0.00000000      -0.24447128
2
Properties=species:S:1:pos:R:3:forces:R:3 energy=-5.98470356859782 pbc="F F F"
Ce       0.00000000       0.00000000       0.00000000       0.00000000       0.00000000       0.25361449
Ce       0.00000000       0.00000000       4.53030303       0.00000000       0.00000000      -0.25361449
2
Properties=species:S:1:pos:R:3:forces:R:3 energy=-5.969625295383631 pbc="F F F"
Ce       0.00000000       0.00000000       0.00000000       0.00000000       0.00000000       0.25872189
Ce       0.00000000       0.00000000       4.58909091       0.00000000       0.00000000      -0.25872189
2
Properties=species:S:1:pos:R:3:forces:R:3 energy=-5.954341997260451 pbc="F F F"
Ce       0.00000000       0.00000000       0.00000000       0.00000000       0.00000000       0.26081577
Ce       0.00000000       0.00000000       4.64787879       0.00000000       0.00000000      -0.26081577
2
Properties=species:S:1:pos:R:3:forces:R:3 energy=-5.93899951037096 pbc="F F F"
Ce       0.00000000       0.00000000       0.00000000       0.00000000       0.00000000       0.26082760
Ce       0.00000000       0.00000000       4.70666667       0.00000000       0.00000000      -0.26082760
2
Properties=species:S:1:pos:R:3:forces:R:3 energy=-5.923701797886933 pbc="F F F"
Ce       0.00000000       0.00000000       0.00000000       0.00000000       0.00000000       0.25949892
Ce       0.00000000       0.00000000       4.76545455       0.00000000       0.00000000      -0.25949892
2
Properties=species:S:1:pos:R:3:forces:R:3 energy=-5.908505231131169 pbc="F F F"
Ce       0.00000000       0.00000000       0.00000000       0.00000000       0.00000000       0.25733554
Ce       0.00000000       0.00000000       4.82424242       0.00000000       0.00000000      -0.25733554
2
Properties=species:S:1:pos:R:3:forces:R:3 energy=-5.893457710815307 pbc="F F F"
Ce       0.00000000       0.00000000       0.00000000       0.00000000       0.00000000       0.25460905
Ce       0.00000000       0.00000000       4.88303030       0.00000000       0.00000000      -0.25460905
2
Properties=species:S:1:pos:R:3:forces:R:3 energy=-5.87857861295269 pbc="F F F"
Ce       0.00000000       0.00000000       0.00000000       0.00000000       0.00000000       0.25136194
Ce       0.00000000       0.00000000       4.94181818       0.00000000       0.00000000      -0.25136194
2
Properties=species:S:1:pos:R:3:forces:R:3 energy=-5.863912229466127 pbc="F F F"
Ce       0.00000000       0.00000000       0.00000000       0.00000000       0.00000000       0.24742331
Ce       0.00000000       0.00000000       5.00060606       0.00000000       0.00000000      -0.24742331
2
Properties=species:S:1:pos:R:3:forces:R:3 energy=-5.849508683614195 pbc="F F F"
Ce       0.00000000       0.00000000       0.00000000       0.00000000       0.00000000       0.24240816
Ce       0.00000000       0.00000000       5.05939394       0.00000000       0.00000000      -0.24240816
2
Properties=species:S:1:pos:R:3:forces:R:3 energy=-5.83544491082619 pbc="F F F"
Ce       0.00000000       0.00000000       0.00000000       0.00000000       0.00000000       0.23576082
Ce       0.00000000       0.00000000       5.11818182       0.00000000       0.00000000      -0.23576082
2
Properties=species:S:1:pos:R:3:forces:R:3 energy=-5.821832278593198 pbc="F F F"
Ce       0.00000000       0.00000000       0.00000000       0.00000000       0.00000000       0.22682837
Ce       0.00000000       0.00000000       5.17696970       0.00000000       0.00000000      -0.22682837
2
Properties=species:S:1:pos:R:3:forces:R:3 energy=-5.808833766860988 pbc="F F F"
Ce       0.00000000       0.00000000       0.00000000       0.00000000       0.00000000       0.21498793
Ce       0.00000000       0.00000000       5.23575758       0.00000000       0.00000000      -0.21498793
2
Properties=species:S:1:pos:R:3:forces:R:3 energy=-5.796622931524007 pbc="F F F"
Ce       0.00000000       0.00000000       0.00000000       0.00000000       0.00000000       0.19980423
Ce       0.00000000       0.00000000       5.29454545       0.00000000       0.00000000      -0.19980423
2
Properties=species:S:1:pos:R:3:forces:R:3 energy=-5.785407755786759 pbc="F F F"
Ce       0.00000000       0.00000000       0.00000000       0.00000000       0.00000000       0.18116574
Ce       0.00000000       0.00000000       5.35333333       0.00000000       0.00000000      -0.18116574
2
Properties=species:S:1:pos:R:3:forces:R:3 energy=-5.775383905867097 pbc="F F F"
Ce       0.00000000       0.00000000       0.00000000       0.00000000       0.00000000       0.15939313
Ce       0.00000000       0.00000000       5.41212121       0.00000000       0.00000000      -0.15939313
2
Properties=species:S:1:pos:R:3:forces:R:3 energy=-5.76671276956046 pbc="F F F"
Ce       0.00000000       0.00000000       0.00000000       0.00000000       0.00000000       0.13527903
Ce       0.00000000       0.00000000       5.47090909       0.00000000       0.00000000      -0.13527903
2
Properties=species:S:1:pos:R:3:forces:R:3 energy=-5.759501430663142 pbc="F F F"
Ce       0.00000000       0.00000000       0.00000000       0.00000000       0.00000000       0.11002827
Ce       0.00000000       0.00000000       5.52969697       0.00000000       0.00000000      -0.11002827
2
Properties=species:S:1:pos:R:3:forces:R:3 energy=-5.7537702345420625 pbc="F F F"
Ce       0.00000000       0.00000000       0.00000000       0.00000000       0.00000000       0.08511189
Ce       0.00000000       0.00000000       5.58848485       0.00000000       0.00000000      -0.08511189
2
Properties=species:S:1:pos:R:3:forces:R:3 energy=-5.749458478502447 pbc="F F F"
Ce       0.00000000       0.00000000       0.00000000       0.00000000       0.00000000       0.06209507
Ce       0.00000000       0.00000000       5.64727273       0.00000000       0.00000000      -0.06209507
2
Properties=species:S:1:pos:R:3:forces:R:3 energy=-5.746406277720617 pbc="F F F"
Ce       0.00000000       0.00000000       0.00000000       0.00000000       0.00000000       0.04236837
Ce       0.00000000       0.00000000       5.70606061       0.00000000       0.00000000      -0.04236837
2
Properties=species:S:1:pos:R:3:forces:R:3 energy=-5.74438794859679 pbc="F F F"
Ce       0.00000000       0.00000000       0.00000000       0.00000000       0.00000000       0.02695791
Ce       0.00000000       0.00000000       5.76484848       0.00000000       0.00000000      -0.02695791
2
Properties=species:S:1:pos:R:3:forces:R:3 energy=-5.743139630464222 pbc="F F F"
Ce       0.00000000       0.00000000       0.00000000       0.00000000       0.00000000       0.01634087
Ce       0.00000000       0.00000000       5.82363636       0.00000000       0.00000000      -0.01634087
2
Properties=species:S:1:pos:R:3:forces:R:3 energy=-5.742378344820328 pbc="F F F"
Ce       0.00000000       0.00000000       0.00000000       0.00000000       0.00000000       0.01027561
Ce       0.00000000       0.00000000       5.88242424       0.00000000       0.00000000      -0.01027561
2
Properties=species:S:1:pos:R:3:forces:R:3 energy=-5.74186303523467 pbc="F F F"
Ce       0.00000000       0.00000000       0.00000000       0.00000000       0.00000000       0.00780446
Ce       0.00000000       0.00000000       5.94121212       0.00000000       0.00000000      -0.00780446
2
Properties=species:S:1:pos:R:3:forces:R:3 energy=-5.7414202848772735 pbc="F F F"
Ce       0.00000000       0.00000000       0.00000000       0.00000000       0.00000000       0.00735437
Ce       0.00000000       0.00000000       6.00000000       0.00000000       0.00000000      -0.00735437
