2
Properties=species:S:1:pos:R:3:forces:R:3 energy=-540351.4660591331 pbc="F F F"
Cl       0.00000000       0.00000000       0.00000000       0.00000000       0.00000000 6045594.50000000
Cl       0.00000000       0.00000000       0.18000000       0.00000000       0.00000000 -6045594.50000000
2
Properties=species:S:1:pos:R:3:forces:R:3 energy=-244334.07543413312 pbc="F F F"
Cl       0.00000000       0.00000000       0.00000000       0.00000000       0.00000000 3931202.75000000
Cl       0.00000000       0.00000000       0.23878788       0.00000000       0.00000000 -3931202.75000000
2
Properties=species:S:1:pos:R:3:forces:R:3 energy=-77391.24730912677 pbc="F F F"
Cl       0.00000000       0.00000000       0.00000000       0.00000000       0.00000000 1838501.25000000
Cl       0.00000000       0.00000000       0.29757576       0.00000000       0.00000000 -1838501.25000000
2
Properties=species:S:1:pos:R:3:forces:R:3 energy=-18632.444574745437 pbc="F F F"
Cl       0.00000000       0.00000000       0.00000000       0.00000000       0.00000000  446442.00000000
Cl       0.00000000       0.00000000       0.35636364       0.00000000       0.00000000 -446442.00000000
2
Properties=species:S:1:pos:R:3:forces:R:3 energy=-3921.7922309764294 pbc="F F F"
Cl       0.00000000       0.00000000       0.00000000       0.00000000       0.00000000  121759.01562500
Cl       0.00000000       0.00000000       0.41515152       0.00000000       0.00000000 -121759.01562500
2
Properties=species:S:1:pos:R:3:forces:R:3 energy=-1307.4237006681458 pbc="F F F"
Cl       0.00000000       0.00000000       0.00000000       0.00000000       0.00000000   24467.57031250
Cl       0.00000000       0.00000000       0.47393939       0.00000000       0.00000000  -24467.57031250
2
Properties=species:S:1:pos:R:3:forces:R:3 energy=-289.83480289654335 pbc="F F F"
Cl       0.00000000       0.00000000       0.00000000       0.00000000       0.00000000   -3949.25683594
Cl       0.00000000       0.00000000       0.53272727       0.00000000       0.00000000    3949.25683594
2
Properties=species:S:1:pos:R:3:forces:R:3 energy=93.59947761300607 pbc="F F F"
Cl       0.00000000       0.00000000       0.00000000       0.00000000       0.00000000    2676.66625977
Cl       0.00000000       0.00000000       0.59151515       0.00000000       0.00000000   -2676.66625977
2
Properties=species:S:1:pos:R:3:forces:R:3 energy=93.60422328647384 pbc="F F F"
Cl       0.00000000       0.00000000       0.00000000       0.00000000       0.00000000    -139.61466980
Cl       0.00000000       0.00000000       0.65030303       0.00000000       0.00000000     139.61466980
2
Properties=species:S:1:pos:R:3:forces:R:3 energy=75.76836237819442 pbc="F F F"
Cl       0.00000000       0.00000000       0.00000000       0.00000000       0.00000000    -562.71453857
Cl       0.00000000       0.00000000       0.70909091       0.00000000       0.00000000     562.71453857
2
Properties=species:S:1:pos:R:3:forces:R:3 energy=40.22029764881395 pbc="F F F"
Cl       0.00000000       0.00000000       0.00000000       0.00000000       0.00000000    -555.19415283
Cl       0.00000000       0.00000000       0.76787879       0.00000000       0.00000000     555.19415283
2
Properties=species:S:1:pos:R:3:forces:R:3 energy=20.640244990924465 pbc="F F F"
Cl       0.00000000       0.00000000       0.00000000       0.00000000       0.00000000    -144.89508057
Cl       0.00000000       0.00000000       0.82666667       0.00000000       0.00000000     144.89508057
2
Properties=species:S:1:pos:R:3:forces:R:3 energy=19.79364637508498 pbc="F F F"
Cl       0.00000000       0.00000000       0.00000000       0.00000000       0.00000000      53.78980637
Cl       0.00000000       0.00000000       0.88545455       0.00000000       0.00000000     -53.78980637
2
Properties=species:S:1:pos:R:3:forces:R:3 energy=23.792890504002163 pbc="F F F"
Cl       0.00000000       0.00000000       0.00000000       0.00000000       0.00000000      70.62850189
Cl       0.00000000       0.00000000       0.94424242       0.00000000       0.00000000     -70.62850189
2
Properties=species:S:1:pos:R:3:forces:R:3 energy=27.062164204596236 pbc="F F F"
Cl       0.00000000       0.00000000       0.00000000       0.00000000       0.00000000      23.68883896
Cl       0.00000000       0.00000000       1.00303030       0.00000000       0.00000000     -23.68883896
2
Properties=species:S:1:pos:R:3:forces:R:3 energy=26.151331431558987 pbc="F F F"
Cl       0.00000000       0.00000000       0.00000000       0.00000000       0.00000000     -47.96540833
Cl       0.00000000       0.00000000       1.06181818       0.00000000       0.00000000      47.96540833
2
Properties=species:S:1:pos:R:3:forces:R:3 energy=22.93867490928552 pbc="F F F"
Cl       0.00000000       0.00000000       0.00000000       0.00000000       0.00000000     -64.00947571
Cl       0.00000000       0.00000000       1.12060606       0.00000000       0.00000000      64.00947571
2
Properties=species:S:1:pos:R:3:forces:R:3 energy=18.788370633857433 pbc="F F F"
Cl       0.00000000       0.00000000       0.00000000       0.00000000       0.00000000     -74.54033661
Cl       0.00000000       0.00000000       1.17939394       0.00000000       0.00000000      74.54033661
2
Properties=species:S:1:pos:R:3:forces:R:3 energy=14.833635707107174 pbc="F F F"
Cl       0.00000000       0.00000000       0.00000000       0.00000000       0.00000000     -64.36726379
Cl       0.00000000       0.00000000       1.23818182       0.00000000       0.00000000      64.36726379
2
Properties=species:S:1:pos:R:3:forces:R:3 energy=11.174745450643774 pbc="F F F"
Cl       0.00000000       0.00000000       0.00000000       0.00000000       0.00000000     -61.32120132
Cl       0.00000000       0.00000000       1.29696970       0.00000000       0.00000000      61.32120132
2
Properties=species:S:1:pos:R:3:forces:R:3 energy=7.669840198352277 pbc="F F F"
Cl       0.00000000       0.00000000       0.00000000       0.00000000       0.00000000     -57.33538437
Cl       0.00000000       0.00000000       1.35575758       0.00000000       0.00000000      57.33538437
2
Properties=species:S:1:pos:R:3:forces:R:3 energy=4.55712337274175 pbc="F F F"
Cl       0.00000000       0.00000000       0.00000000       0.00000000       0.00000000     -47.17967987
Cl       0.00000000       0.00000000       1.41454545       0.00000000       0.00000000      47.17967987
2
Properties=species:S:1:pos:R:3:forces:R:3 energy=2.1260789803570983 pbc="F F F"
Cl       0.00000000       0.00000000       0.00000000       0.00000000       0.00000000     -35.88380814
Cl       0.00000000       0.00000000       1.47333333       0.00000000       0.00000000      35.88380814
2
Properties=species:S:1:pos:R:3:forces:R:3 energy=0.31897397961197604 pbc="F F F"
Cl       0.00000000       0.00000000       0.00000000       0.00000000       0.00000000     -25.66251945
Cl       0.00000000       0.00000000       1.53212121       0.00000000       0.00000000      25.66251945
2
Properties=species:S:1:pos:R:3:forces:R:3 energy=-0.9227743061968617 pbc="F F F"
Cl       0.00000000       0.00000000       0.00000000       0.00000000       0.00000000     -17.24679184
Cl       0.00000000       0.00000000       1.59090909       0.00000000       0.00000000      17.24679184
2
Properties=species:S:1:pos:R:3:forces:R:3 energy=-1.7753744358475396 pbc="F F F"
Cl       0.00000000       0.00000000       0.00000000       0.00000000       0.00000000     -12.17076492
Cl       0.00000000       0.00000000       1.64969697       0.00000000       0.00000000      12.17076492
2
Properties=species:S:1:pos:R:3:forces:R:3 energy=-2.4018474709718967 pbc="F F F"
Cl       0.00000000       0.00000000       0.00000000       0.00000000       0.00000000      -9.34828949
Cl       0.00000000       0.00000000       1.70848485       0.00000000       0.00000000       9.34828949
2
Properties=species:S:1:pos:R:3:forces:R:3 energy=-2.878408586212419 pbc="F F F"
Cl       0.00000000       0.00000000       0.00000000       0.00000000       0.00000000      -6.92371941
Cl       0.00000000       0.00000000       1.76727273       0.00000000       0.00000000       6.92371941
2
Properties=species:S:1:pos:R:3:forces:R:3 energy=-3.2257844973306153 pbc="F F F"
Cl       0.00000000       0.00000000       0.00000000       0.00000000       0.00000000      -4.94447994
Cl       0.00000000       0.00000000       1.82606061       0.00000000       0.00000000       4.94447994
2
Properties=species:S:1:pos:R:3:forces:R:3 energy=-3.4571685258807463 pbc="F F F"
Cl       0.00000000       0.00000000       0.00000000       0.00000000       0.00000000      -2.84679151
Cl       0.00000000       0.00000000       1.88484848       0.00000000       0.00000000       2.84679151
2
Properties=species:S:1:pos:R:3:forces:R:3 energy=-3.5635812279514756 pbc="F F F"
Cl       0.00000000       0.00000000       0.00000000       0.00000000       0.00000000      -0.90819246
Cl       0.00000000       0.00000000       1.94363636       0.00000000       0.00000000       0.90819246
2
Properties=species:S:1:pos:R:3:forces:R:3 energy=-3.5751320100521484 pbc="F F F"
Cl       0.00000000       0.00000000       0.00000000       0.00000000       0.00000000       0.45673832
Cl       0.00000000       0.00000000       2.00242424       0.00000000       0.00000000      -0.45673832
2
Properties=species:S:1:pos:R:3:forces:R:3 energy=-3.5165786972517314 pbc="F F F"
Cl       0.00000000       0.00000000       0.00000000       0.00000000       0.00000000       1.48967659
Cl       0.00000000       0.00000000       2.06121212       0.00000000       0.00000000      -1.48967659
2
Properties=species:S:1:pos:R:3:forces:R:3 energy=-3.40234716313045 pbc="F F F"
Cl       0.00000000       0.00000000       0.00000000       0.00000000       0.00000000       2.38722181
Cl       0.00000000       0.00000000       2.12000000       0.00000000       0.00000000      -2.38722181
2
Properties=species:S:1:pos:R:3:forces:R:3 energy=-3.2390000171181117 pbc="F F F"
Cl       0.00000000       0.00000000       0.00000000       0.00000000       0.00000000       3.11099505
Cl       0.00000000       0.00000000       2.17878788       0.00000000       0.00000000      -3.11099505
2
Properties=species:S:1:pos:R:3:forces:R:3 energy=-3.0465510535714757 pbc="F F F"
Cl       0.00000000       0.00000000       0.00000000       0.00000000       0.00000000       3.34763527
Cl       0.00000000       0.00000000       2.23757576       0.00000000       0.00000000      -3.34763527
2
Properties=species:S:1:pos:R:3:forces:R:3 energy=-2.853586259475243 pbc="F F F"
Cl       0.00000000       0.00000000       0.00000000       0.00000000       0.00000000       3.16650176
Cl       0.00000000       0.00000000       2.29636364       0.00000000       0.00000000      -3.16650176
2
Properties=species:S:1:pos:R:3:forces:R:3 energy=-2.679791940101123 pbc="F F F"
Cl       0.00000000       0.00000000       0.00000000       0.00000000       0.00000000       2.70046186
Cl       0.00000000       0.00000000       2.35515152       0.00000000       0.00000000      -2.70046186
2
Properties=species:S:1:pos:R:3:forces:R:3 energy=-2.5381958186454963 pbc="F F F"
Cl       0.00000000       0.00000000       0.00000000       0.00000000       0.00000000       2.13153219
Cl       0.00000000       0.00000000       2.41393939       0.00000000       0.00000000      -2.13153219
2
Properties=species:S:1:pos:R:3:forces:R:3 energy=-2.4262621741681114 pbc="F F F"
Cl       0.00000000       0.00000000       0.00000000       0.00000000       0.00000000       1.69732094
Cl       0.00000000       0.00000000       2.47272727       0.00000000       0.00000000      -1.69732094
2
Properties=species:S:1:pos:R:3:forces:R:3 energy=-2.337395279776307 pbc="F F F"
Cl       0.00000000       0.00000000       0.00000000       0.00000000       0.00000000       1.32924283
Cl       0.00000000       0.00000000       2.53151515       0.00000000       0.00000000      -1.32924283
2
Properties=species:S:1:pos:R:3:forces:R:3 energy=-2.2696217362519793 pbc="F F F"
Cl       0.00000000       0.00000000       0.00000000       0.00000000       0.00000000       0.98105341
Cl       0.00000000       0.00000000       2.59030303       0.00000000       0.00000000      -0.98105341
2
Properties=species:S:1:pos:R:3:forces:R:3 energy=-2.221414489841074 pbc="F F F"
Cl       0.00000000       0.00000000       0.00000000       0.00000000       0.00000000       0.66486835
Cl       0.00000000       0.00000000       2.64909091       0.00000000       0.00000000      -0.66486835
2
Properties=species:S:1:pos:R:3:forces:R:3 energy=-2.190549397931201 pbc="F F F"
Cl       0.00000000       0.00000000       0.00000000       0.00000000       0.00000000       0.39550650
Cl       0.00000000       0.00000000       2.70787879       0.00000000       0.00000000      -0.39550650
2
Properties=species:S:1:pos:R:3:forces:R:3 energy=-2.1734339385553305 pbc="F F F"
Cl       0.00000000       0.00000000       0.00000000       0.00000000       0.00000000       0.20032711
Cl       0.00000000       0.00000000       2.76666667       0.00000000       0.00000000      -0.20032711
2
Properties=species:S:1:pos:R:3:forces:R:3 energy=-2.165528850050563 pbc="F F F"
Cl       0.00000000       0.00000000       0.00000000       0.00000000       0.00000000       0.07897151
Cl       0.00000000       0.00000000       2.82545455       0.00000000       0.00000000      -0.07897151
2
Properties=species:S:1:pos:R:3:forces:R:3 energy=-2.163245758044396 pbc="F F F"
Cl       0.00000000       0.00000000       0.00000000       0.00000000       0.00000000       0.00378151
Cl       0.00000000       0.00000000       2.88424242       0.00000000       0.00000000      -0.00378151
2
Properties=species:S:1:pos:R:3:forces:R:3 energy=-2.164735067933927 pbc="F F F"
Cl       0.00000000       0.00000000       0.00000000       0.00000000       0.00000000      -0.05308677
Cl       0.00000000       0.00000000       2.94303030       0.00000000       0.00000000       0.05308677
2
Properties=species:S:1:pos:R:3:forces:R:3 energy=-2.169407372674256 pbc="F F F"
Cl       0.00000000       0.00000000       0.00000000       0.00000000       0.00000000      -0.10531023
Cl       0.00000000       0.00000000       3.00181818       0.00000000       0.00000000       0.10531023
2
Properties=species:S:1:pos:R:3:forces:R:3 energy=-2.1770074792069143 pbc="F F F"
Cl       0.00000000       0.00000000       0.00000000       0.00000000       0.00000000      -0.15175277
Cl       0.00000000       0.00000000       3.06060606       0.00000000       0.00000000       0.15175277
2
Properties=species:S:1:pos:R:3:forces:R:3 energy=-2.187001623450482 pbc="F F F"
Cl       0.00000000       0.00000000       0.00000000       0.00000000       0.00000000      -0.18562689
Cl       0.00000000       0.00000000       3.11939394       0.00000000       0.00000000       0.18562689
2
Properties=species:S:1:pos:R:3:forces:R:3 energy=-2.19849122763538 pbc="F F F"
Cl       0.00000000       0.00000000       0.00000000       0.00000000       0.00000000      -0.20223203
Cl       0.00000000       0.00000000       3.17818182       0.00000000       0.00000000       0.20223203
2
Properties=species:S:1:pos:R:3:forces:R:3 energy=-2.2104545299502707 pbc="F F F"
Cl       0.00000000       0.00000000       0.00000000       0.00000000       0.00000000      -0.20254438
Cl       0.00000000       0.00000000       3.23696970       0.00000000       0.00000000       0.20254438
2
Properties=species:S:1:pos:R:3:forces:R:3 energy=-2.222130762404186 pbc="F F F"
Cl       0.00000000       0.00000000       0.00000000       0.00000000       0.00000000      -0.19403768
Cl       0.00000000       0.00000000       3.29575758       0.00000000       0.00000000       0.19403768
2
Properties=species:S:1:pos:R:3:forces:R:3 energy=-2.23329131036261 pbc="F F F"
Cl       0.00000000       0.00000000       0.00000000       0.00000000       0.00000000      -0.18649505
Cl       0.00000000       0.00000000       3.35454545       0.00000000       0.00000000       0.18649505
2
Properties=species:S:1:pos:R:3:forces:R:3 energy=-2.24419895247392 pbc="F F F"
Cl       0.00000000       0.00000000       0.00000000       0.00000000       0.00000000      -0.18589282
Cl       0.00000000       0.00000000       3.41333333       0.00000000       0.00000000       0.18589282
2
Properties=species:S:1:pos:R:3:forces:R:3 energy=-2.2552837880478527 pbc="F F F"
Cl       0.00000000       0.00000000       0.00000000       0.00000000       0.00000000      -0.19210872
Cl       0.00000000       0.00000000       3.47212121       0.00000000       0.00000000       0.19210872
2
Properties=species:S:1:pos:R:3:forces:R:3 energy=-2.2668413167709884 pbc="F F F"
Cl       0.00000000       0.00000000       0.00000000       0.00000000       0.00000000      -0.20117946
Cl       0.00000000       0.00000000       3.53090909       0.00000000       0.00000000       0.20117946
2
Properties=species:S:1:pos:R:3:forces:R:3 energy=-2.2789100586996724 pbc="F F F"
Cl       0.00000000       0.00000000       0.00000000       0.00000000       0.00000000      -0.20890903
Cl       0.00000000       0.00000000       3.58969697       0.00000000       0.00000000       0.20890903
2
Properties=species:S:1:pos:R:3:forces:R:3 energy=-2.291333372028186 pbc="F F F"
Cl       0.00000000       0.00000000       0.00000000       0.00000000       0.00000000      -0.21306705
Cl       0.00000000       0.00000000       3.64848485       0.00000000       0.00000000       0.21306705
2
Properties=species:S:1:pos:R:3:forces:R:3 energy=-2.3038895963708015 pbc="F F F"
Cl       0.00000000       0.00000000       0.00000000       0.00000000       0.00000000      -0.21359365
Cl       0.00000000       0.00000000       3.70727273       0.00000000       0.00000000       0.21359365
2
Properties=species:S:1:pos:R:3:forces:R:3 energy=-2.3163995993798117 pbc="F F F"
Cl       0.00000000       0.00000000       0.00000000       0.00000000       0.00000000      -0.21171302
Cl       0.00000000       0.00000000       3.76606061       0.00000000       0.00000000       0.21171302
2
Properties=species:S:1:pos:R:3:forces:R:3 energy=-2.3287648809525834 pbc="F F F"
Cl       0.00000000       0.00000000       0.00000000       0.00000000       0.00000000      -0.20892724
Cl       0.00000000       0.00000000       3.82484848       0.00000000       0.00000000       0.20892724
2
Properties=species:S:1:pos:R:3:forces:R:3 energy=-2.3409674385991175 pbc="F F F"
Cl       0.00000000       0.00000000       0.00000000       0.00000000       0.00000000      -0.20632690
Cl       0.00000000       0.00000000       3.88363636       0.00000000       0.00000000       0.20632690
2
Properties=species:S:1:pos:R:3:forces:R:3 energy=-2.353035357555017 pbc="F F F"
Cl       0.00000000       0.00000000       0.00000000       0.00000000       0.00000000      -0.20431767
Cl       0.00000000       0.00000000       3.94242424       0.00000000       0.00000000       0.20431767
2
Properties=species:S:1:pos:R:3:forces:R:3 energy=-2.3649984189923505 pbc="F F F"
Cl       0.00000000       0.00000000       0.00000000       0.00000000       0.00000000      -0.20271215
Cl       0.00000000       0.00000000       4.00121212       0.00000000       0.00000000       0.20271215
2
Properties=species:S:1:pos:R:3:forces:R:3 energy=-2.3768673077100737 pbc="F F F"
Cl       0.00000000       0.00000000       0.00000000       0.00000000       0.00000000      -0.20103076
Cl       0.00000000       0.00000000       4.06000000       0.00000000       0.00000000       0.20103076
2
Properties=species:S:1:pos:R:3:forces:R:3 energy=-2.3886242987622883 pbc="F F F"
Cl       0.00000000       0.00000000       0.00000000       0.00000000       0.00000000      -0.19880934
Cl       0.00000000       0.00000000       4.11878788       0.00000000       0.00000000       0.19880934
2
Properties=species:S:1:pos:R:3:forces:R:3 energy=-2.4002261327363903 pbc="F F F"
Cl       0.00000000       0.00000000       0.00000000       0.00000000       0.00000000      -0.19574988
Cl       0.00000000       0.00000000       4.17757576       0.00000000       0.00000000       0.19574988
2
Properties=species:S:1:pos:R:3:forces:R:3 energy=-2.411621663479658 pbc="F F F"
Cl       0.00000000       0.00000000       0.00000000       0.00000000       0.00000000      -0.19172694
Cl       0.00000000       0.00000000       4.23636364       0.00000000       0.00000000       0.19172694
2
Properties=species:S:1:pos:R:3:forces:R:3 energy=-2.4227502422302187 pbc="F F F"
Cl       0.00000000       0.00000000       0.00000000       0.00000000       0.00000000      -0.18674937
Cl       0.00000000       0.00000000       4.29515152       0.00000000       0.00000000       0.18674937
2
Properties=species:S:1:pos:R:3:forces:R:3 energy=-2.433561302786578 pbc="F F F"
Cl       0.00000000       0.00000000       0.00000000       0.00000000       0.00000000      -0.18092734
Cl       0.00000000       0.00000000       4.35393939       0.00000000       0.00000000       0.18092734
2
Properties=species:S:1:pos:R:3:forces:R:3 energy=-2.4440093816439483 pbc="F F F"
Cl       0.00000000       0.00000000       0.00000000       0.00000000       0.00000000      -0.17443825
Cl       0.00000000       0.00000000       4.41272727       0.00000000       0.00000000       0.17443825
2
Properties=species:S:1:pos:R:3:forces:R:3 energy=-2.454061363210419 pbc="F F F"
Cl       0.00000000       0.00000000       0.00000000       0.00000000       0.00000000      -0.16746491
Cl       0.00000000       0.00000000       4.47151515       0.00000000       0.00000000       0.16746491
2
Properties=species:S:1:pos:R:3:forces:R:3 energy=-2.4636917169790618 pbc="F F F"
Cl       0.00000000       0.00000000       0.00000000       0.00000000       0.00000000      -0.16012351
Cl       0.00000000       0.00000000       4.53030303       0.00000000       0.00000000       0.16012351
2
Properties=species:S:1:pos:R:3:forces:R:3 energy=-2.472881150963746 pbc="F F F"
Cl       0.00000000       0.00000000       0.00000000       0.00000000       0.00000000      -0.15242420
Cl       0.00000000       0.00000000       4.58909091       0.00000000       0.00000000       0.15242420
2
Properties=species:S:1:pos:R:3:forces:R:3 energy=-2.4816037656062635 pbc="F F F"
Cl       0.00000000       0.00000000       0.00000000       0.00000000       0.00000000      -0.14429212
Cl       0.00000000       0.00000000       4.64787879       0.00000000       0.00000000       0.14429212
2
Properties=species:S:1:pos:R:3:forces:R:3 energy=-2.4898366241776055 pbc="F F F"
Cl       0.00000000       0.00000000       0.00000000       0.00000000       0.00000000      -0.13563819
Cl       0.00000000       0.00000000       4.70666667       0.00000000       0.00000000       0.13563819
2
Properties=species:S:1:pos:R:3:forces:R:3 energy=-2.497541686422948 pbc="F F F"
Cl       0.00000000       0.00000000       0.00000000       0.00000000       0.00000000      -0.12644649
Cl       0.00000000       0.00000000       4.76545455       0.00000000       0.00000000       0.12644649
2
Properties=species:S:1:pos:R:3:forces:R:3 energy=-2.504695391472392 pbc="F F F"
Cl       0.00000000       0.00000000       0.00000000       0.00000000       0.00000000      -0.11683923
Cl       0.00000000       0.00000000       4.82424242       0.00000000       0.00000000       0.11683923
2
Properties=species:S:1:pos:R:3:forces:R:3 energy=-2.5112765365073004 pbc="F F F"
Cl       0.00000000       0.00000000       0.00000000       0.00000000       0.00000000      -0.10707773
Cl       0.00000000       0.00000000       4.88303030       0.00000000       0.00000000       0.10707773
2
Properties=species:S:1:pos:R:3:forces:R:3 energy=-2.5172884473122803 pbc="F F F"
Cl       0.00000000       0.00000000       0.00000000       0.00000000       0.00000000      -0.09750324
Cl       0.00000000       0.00000000       4.94181818       0.00000000       0.00000000       0.09750324
2
Properties=species:S:1:pos:R:3:forces:R:3 energy=-2.522750914413122 pbc="F F F"
Cl       0.00000000       0.00000000       0.00000000       0.00000000       0.00000000      -0.08845047
Cl       0.00000000       0.00000000       5.00060606       0.00000000       0.00000000       0.08845047
2
Properties=species:S:1:pos:R:3:forces:R:3 energy=-2.5277023479514935 pbc="F F F"
Cl       0.00000000       0.00000000       0.00000000       0.00000000       0.00000000      -0.08014016
Cl       0.00000000       0.00000000       5.05939394       0.00000000       0.00000000       0.08014016
2
Properties=species:S:1:pos:R:3:forces:R:3 energy=-2.532189524894089 pbc="F F F"
Cl       0.00000000       0.00000000       0.00000000       0.00000000       0.00000000      -0.07262369
Cl       0.00000000       0.00000000       5.11818182       0.00000000       0.00000000       0.07262369
2
Properties=species:S:1:pos:R:3:forces:R:3 energy=-2.536254255411194 pbc="F F F"
Cl       0.00000000       0.00000000       0.00000000       0.00000000       0.00000000      -0.06577591
Cl       0.00000000       0.00000000       5.17696970       0.00000000       0.00000000       0.06577591
2
Properties=species:S:1:pos:R:3:forces:R:3 energy=-2.5399310074024086 pbc="F F F"
Cl       0.00000000       0.00000000       0.00000000       0.00000000       0.00000000      -0.05933978
Cl       0.00000000       0.00000000       5.23575758       0.00000000       0.00000000       0.05933978
2
Properties=species:S:1:pos:R:3:forces:R:3 energy=-2.5432340233798527 pbc="F F F"
Cl       0.00000000       0.00000000       0.00000000       0.00000000       0.00000000      -0.05301306
Cl       0.00000000       0.00000000       5.29454545       0.00000000       0.00000000       0.05301306
2
Properties=species:S:1:pos:R:3:forces:R:3 energy=-2.546160913575907 pbc="F F F"
Cl       0.00000000       0.00000000       0.00000000       0.00000000       0.00000000      -0.04654130
Cl       0.00000000       0.00000000       5.35333333       0.00000000       0.00000000       0.04654130
2
Properties=species:S:1:pos:R:3:forces:R:3 energy=-2.548699564736309 pbc="F F F"
Cl       0.00000000       0.00000000       0.00000000       0.00000000       0.00000000      -0.03979225
Cl       0.00000000       0.00000000       5.41212121       0.00000000       0.00000000       0.03979225
2
Properties=species:S:1:pos:R:3:forces:R:3 energy=-2.550834810494665 pbc="F F F"
Cl       0.00000000       0.00000000       0.00000000       0.00000000       0.00000000      -0.03279426
Cl       0.00000000       0.00000000       5.47090909       0.00000000       0.00000000       0.03279426
2
Properties=species:S:1:pos:R:3:forces:R:3 energy=-2.5525548771876125 pbc="F F F"
Cl       0.00000000       0.00000000       0.00000000       0.00000000       0.00000000      -0.02573230
Cl       0.00000000       0.00000000       5.52969697       0.00000000       0.00000000       0.02573230
2
Properties=species:S:1:pos:R:3:forces:R:3 energy=-2.5538654479771257 pbc="F F F"
Cl       0.00000000       0.00000000       0.00000000       0.00000000       0.00000000      -0.01891137
Cl       0.00000000       0.00000000       5.58848485       0.00000000       0.00000000       0.01891137
2
Properties=species:S:1:pos:R:3:forces:R:3 energy=-2.554789655326943 pbc="F F F"
Cl       0.00000000       0.00000000       0.00000000       0.00000000       0.00000000      -0.01269864
Cl       0.00000000       0.00000000       5.64727273       0.00000000       0.00000000       0.01269864
2
Properties=species:S:1:pos:R:3:forces:R:3 energy=-2.5553764278307107 pbc="F F F"
Cl       0.00000000       0.00000000       0.00000000       0.00000000       0.00000000      -0.00743282
Cl       0.00000000       0.00000000       5.70606061       0.00000000       0.00000000       0.00743282
2
Properties=species:S:1:pos:R:3:forces:R:3 energy=-2.5556883310624388 pbc="F F F"
Cl       0.00000000       0.00000000       0.00000000       0.00000000       0.00000000      -0.00337028
Cl       0.00000000       0.00000000       5.76484848       0.00000000       0.00000000       0.00337028
2
Properties=species:S:1:pos:R:3:forces:R:3 energy=-2.555799417255544 pbc="F F F"
Cl       0.00000000       0.00000000       0.00000000       0.00000000       0.00000000      -0.00062330
Cl       0.00000000       0.00000000       5.82363636       0.00000000       0.00000000       0.00062330
2
Properties=species:S:1:pos:R:3:forces:R:3 energy=-2.555785681432085 pbc="F F F"
Cl       0.00000000       0.00000000       0.00000000       0.00000000       0.00000000       0.00088577
Cl       0.00000000       0.00000000       5.88242424       0.00000000       0.00000000      -0.00088577
2
Properties=species:S:1:pos:R:3:forces:R:3 energy=-2.5557141017706995 pbc="F F F"
Cl       0.00000000       0.00000000       0.00000000       0.00000000       0.00000000       0.00142516
Cl       0.00000000       0.00000000       5.94121212       0.00000000       0.00000000      -0.00142516
2
Properties=species:S:1:pos:R:3:forces:R:3 energy=-2.5556290387592075 pbc="F F F"
Cl       0.00000000       0.00000000       0.00000000       0.00000000       0.00000000       0.00142215
Cl       0.00000000       0.00000000       6.00000000       0.00000000       0.00000000      -0.00142215
