2
Properties=species:S:1:pos:R:3:forces:R:3 energy=11257943.968243264 pbc="F F F"
Co       0.00000000       0.00000000       0.00000000       0.00000000       0.00000000 -64013364.00000000
Co       0.00000000       0.00000000       0.10000000       0.00000000       0.00000000 64013364.00000000
2
Properties=species:S:1:pos:R:3:forces:R:3 energy=7209260.968243264 pbc="F F F"
Co       0.00000000       0.00000000       0.00000000       0.00000000       0.00000000 -67214832.00000000
Co       0.00000000       0.00000000       0.15959596       0.00000000       0.00000000 67214832.00000000
2
Properties=species:S:1:pos:R:3:forces:R:3 energy=3672843.218243264 pbc="F F F"
Co       0.00000000       0.00000000       0.00000000       0.00000000       0.00000000 -49260032.00000000
Co       0.00000000       0.00000000       0.21919192       0.00000000       0.00000000 49260032.00000000
2
Properties=species:S:1:pos:R:3:forces:R:3 energy=1437394.2182432672 pbc="F F F"
Co       0.00000000       0.00000000       0.00000000       0.00000000       0.00000000 -26333376.00000000
Co       0.00000000       0.00000000       0.27878788       0.00000000       0.00000000 26333376.00000000
2
Properties=species:S:1:pos:R:3:forces:R:3 energy=399420.3744932672 pbc="F F F"
Co       0.00000000       0.00000000       0.00000000       0.00000000       0.00000000 -10018796.00000000
Co       0.00000000       0.00000000       0.33838384       0.00000000       0.00000000 10018796.00000000
2
Properties=species:S:1:pos:R:3:forces:R:3 energy=67218.14011827356 pbc="F F F"
Co       0.00000000       0.00000000       0.00000000       0.00000000       0.00000000 -2439455.25000000
Co       0.00000000       0.00000000       0.39797980       0.00000000       0.00000000 2439455.25000000
2
Properties=species:S:1:pos:R:3:forces:R:3 energy=-808.311236700581 pbc="F F F"
Co       0.00000000       0.00000000       0.00000000       0.00000000       0.00000000 -308083.96875000
Co       0.00000000       0.00000000       0.45757576       0.00000000       0.00000000  308083.96875000
2
Properties=species:S:1:pos:R:3:forces:R:3 energy=-4764.534198104187 pbc="F F F"
Co       0.00000000       0.00000000       0.00000000       0.00000000       0.00000000   48796.78906250
Co       0.00000000       0.00000000       0.51717172       0.00000000       0.00000000  -48796.78906250
2
Properties=species:S:1:pos:R:3:forces:R:3 energy=-1805.8806336130488 pbc="F F F"
Co       0.00000000       0.00000000       0.00000000       0.00000000       0.00000000   37928.19531250
Co       0.00000000       0.00000000       0.57676768       0.00000000       0.00000000  -37928.19531250
2
Properties=species:S:1:pos:R:3:forces:R:3 energy=-498.7178833118873 pbc="F F F"
Co       0.00000000       0.00000000       0.00000000       0.00000000       0.00000000   12205.87500000
Co       0.00000000       0.00000000       0.63636364       0.00000000       0.00000000  -12205.87500000
2
Properties=species:S:1:pos:R:3:forces:R:3 energy=-130.88280020587231 pbc="F F F"
Co       0.00000000       0.00000000       0.00000000       0.00000000       0.00000000    3286.73242188
Co       0.00000000       0.00000000       0.69595960       0.00000000       0.00000000   -3286.73242188
2
Properties=species:S:1:pos:R:3:forces:R:3 energy=-28.529040288191855 pbc="F F F"
Co       0.00000000       0.00000000       0.00000000       0.00000000       0.00000000     508.37597656
Co       0.00000000       0.00000000       0.75555556       0.00000000       0.00000000    -508.37597656
2
Properties=species:S:1:pos:R:3:forces:R:3 energy=-15.256365505897431 pbc="F F F"
Co       0.00000000       0.00000000       0.00000000       0.00000000       0.00000000      94.41896057
Co       0.00000000       0.00000000       0.81515152       0.00000000       0.00000000     -94.41896057
2
Properties=species:S:1:pos:R:3:forces:R:3 energy=-12.052192094705841 pbc="F F F"
Co       0.00000000       0.00000000       0.00000000       0.00000000       0.00000000      39.29714584
Co       0.00000000       0.00000000       0.87474747       0.00000000       0.00000000     -39.29714584
2
Properties=species:S:1:pos:R:3:forces:R:3 energy=-9.496116539241259 pbc="F F F"
Co       0.00000000       0.00000000       0.00000000       0.00000000       0.00000000      45.45001602
Co       0.00000000       0.00000000       0.93434343       0.00000000       0.00000000     -45.45001602
2
Properties=species:S:1:pos:R:3:forces:R:3 energy=-6.837565646393479 pbc="F F F"
Co       0.00000000       0.00000000       0.00000000       0.00000000       0.00000000      44.06346512
Co       0.00000000       0.00000000       0.99393939       0.00000000       0.00000000     -44.06346512
2
Properties=species:S:1:pos:R:3:forces:R:3 energy=-4.087621525199859 pbc="F F F"
Co       0.00000000       0.00000000       0.00000000       0.00000000       0.00000000      46.27324295
Co       0.00000000       0.00000000       1.05353535       0.00000000       0.00000000     -46.27324295
2
Properties=species:S:1:pos:R:3:forces:R:3 energy=-1.537789461736718 pbc="F F F"
Co       0.00000000       0.00000000       0.00000000       0.00000000       0.00000000      34.64569473
Co       0.00000000       0.00000000       1.11313131       0.00000000       0.00000000     -34.64569473
2
Properties=species:S:1:pos:R:3:forces:R:3 energy=-0.2412324220780832 pbc="F F F"
Co       0.00000000       0.00000000       0.00000000       0.00000000       0.00000000       8.96590519
Co       0.00000000       0.00000000       1.17272727       0.00000000       0.00000000      -8.96590519
2
Properties=species:S:1:pos:R:3:forces:R:3 energy=-0.282346215663752 pbc="F F F"
Co       0.00000000       0.00000000       0.00000000       0.00000000       0.00000000     -12.85961819
Co       0.00000000       0.00000000       1.23232323       0.00000000       0.00000000      12.85961819
2
Properties=species:S:1:pos:R:3:forces:R:3 energy=-1.2333620180089144 pbc="F F F"
Co       0.00000000       0.00000000       0.00000000       0.00000000       0.00000000     -16.16589928
Co       0.00000000       0.00000000       1.29191919       0.00000000       0.00000000      16.16589928
2
Properties=species:S:1:pos:R:3:forces:R:3 energy=-2.1513342378931153 pbc="F F F"
Co       0.00000000       0.00000000       0.00000000       0.00000000       0.00000000     -14.51482010
Co       0.00000000       0.00000000       1.35151515       0.00000000       0.00000000      14.51482010
2
Properties=species:S:1:pos:R:3:forces:R:3 energy=-2.990269894178323 pbc="F F F"
Co       0.00000000       0.00000000       0.00000000       0.00000000       0.00000000     -13.44833088
Co       0.00000000       0.00000000       1.41111111       0.00000000       0.00000000      13.44833088
2
Properties=species:S:1:pos:R:3:forces:R:3 energy=-3.708402210291837 pbc="F F F"
Co       0.00000000       0.00000000       0.00000000       0.00000000       0.00000000     -10.43474197
Co       0.00000000       0.00000000       1.47070707       0.00000000       0.00000000      10.43474197
2
Properties=species:S:1:pos:R:3:forces:R:3 energy=-4.250475220313348 pbc="F F F"
Co       0.00000000       0.00000000       0.00000000       0.00000000       0.00000000      -8.08765793
Co       0.00000000       0.00000000       1.53030303       0.00000000       0.00000000       8.08765793
2
Properties=species:S:1:pos:R:3:forces:R:3 energy=-4.692858285854082 pbc="F F F"
Co       0.00000000       0.00000000       0.00000000       0.00000000       0.00000000      -6.89512539
Co       0.00000000       0.00000000       1.58989899       0.00000000       0.00000000       6.89512539
2
Properties=species:S:1:pos:R:3:forces:R:3 energy=-5.088598032561097 pbc="F F F"
Co       0.00000000       0.00000000       0.00000000       0.00000000       0.00000000      -6.41154099
Co       0.00000000       0.00000000       1.64949495       0.00000000       0.00000000       6.41154099
2
Properties=species:S:1:pos:R:3:forces:R:3 energy=-5.461412022077514 pbc="F F F"
Co       0.00000000       0.00000000       0.00000000       0.00000000       0.00000000      -6.08419085
Co       0.00000000       0.00000000       1.70909091       0.00000000       0.00000000       6.08419085
2
Properties=species:S:1:pos:R:3:forces:R:3 energy=-5.805683227905584 pbc="F F F"
Co       0.00000000       0.00000000       0.00000000       0.00000000       0.00000000      -5.48129559
Co       0.00000000       0.00000000       1.76868687       0.00000000       0.00000000       5.48129559
2
Properties=species:S:1:pos:R:3:forces:R:3 energy=-6.128161576995706 pbc="F F F"
Co       0.00000000       0.00000000       0.00000000       0.00000000       0.00000000      -5.24335575
Co       0.00000000       0.00000000       1.82828283       0.00000000       0.00000000       5.24335575
2
Properties=species:S:1:pos:R:3:forces:R:3 energy=-6.410743907024333 pbc="F F F"
Co       0.00000000       0.00000000       0.00000000       0.00000000       0.00000000      -4.29787540
Co       0.00000000       0.00000000       1.88787879       0.00000000       0.00000000       4.29787540
2
Properties=species:S:1:pos:R:3:forces:R:3 energy=-6.638129451710457 pbc="F F F"
Co       0.00000000       0.00000000       0.00000000       0.00000000       0.00000000      -3.24733567
Co       0.00000000       0.00000000       1.94747475       0.00000000       0.00000000       3.24733567
2
Properties=species:S:1:pos:R:3:forces:R:3 energy=-6.796465719025711 pbc="F F F"
Co       0.00000000       0.00000000       0.00000000       0.00000000       0.00000000      -2.08115458
Co       0.00000000       0.00000000       2.00707071       0.00000000       0.00000000       2.08115458
2
Properties=species:S:1:pos:R:3:forces:R:3 energy=-6.885144137091232 pbc="F F F"
Co       0.00000000       0.00000000       0.00000000       0.00000000       0.00000000      -0.89507824
Co       0.00000000       0.00000000       2.06666667       0.00000000       0.00000000       0.89507824
2
Properties=species:S:1:pos:R:3:forces:R:3 energy=-6.908366736007087 pbc="F F F"
Co       0.00000000       0.00000000       0.00000000       0.00000000       0.00000000       0.05890404
Co       0.00000000       0.00000000       2.12626263       0.00000000       0.00000000      -0.05890404
2
Properties=species:S:1:pos:R:3:forces:R:3 energy=-6.884790963434497 pbc="F F F"
Co       0.00000000       0.00000000       0.00000000       0.00000000       0.00000000       0.68058139
Co       0.00000000       0.00000000       2.18585859       0.00000000       0.00000000      -0.68058139
2
Properties=species:S:1:pos:R:3:forces:R:3 energy=-6.830905952251764 pbc="F F F"
Co       0.00000000       0.00000000       0.00000000       0.00000000       0.00000000       1.09969699
Co       0.00000000       0.00000000       2.24545455       0.00000000       0.00000000      -1.09969699
2
Properties=species:S:1:pos:R:3:forces:R:3 energy=-6.7591768776734185 pbc="F F F"
Co       0.00000000       0.00000000       0.00000000       0.00000000       0.00000000       1.25908661
Co       0.00000000       0.00000000       2.30505051       0.00000000       0.00000000      -1.25908661
2
Properties=species:S:1:pos:R:3:forces:R:3 energy=-6.684614310482127 pbc="F F F"
Co       0.00000000       0.00000000       0.00000000       0.00000000       0.00000000       1.23025632
Co       0.00000000       0.00000000       2.36464646       0.00000000       0.00000000      -1.23025632
2
Properties=species:S:1:pos:R:3:forces:R:3 energy=-6.612416931493882 pbc="F F F"
Co       0.00000000       0.00000000       0.00000000       0.00000000       0.00000000       1.19980693
Co       0.00000000       0.00000000       2.42424242       0.00000000       0.00000000      -1.19980693
2
Properties=species:S:1:pos:R:3:forces:R:3 energy=-6.541297110862129 pbc="F F F"
Co       0.00000000       0.00000000       0.00000000       0.00000000       0.00000000       1.18503737
Co       0.00000000       0.00000000       2.48383838       0.00000000       0.00000000      -1.18503737
2
Properties=species:S:1:pos:R:3:forces:R:3 energy=-6.471122052724181 pbc="F F F"
Co       0.00000000       0.00000000       0.00000000       0.00000000       0.00000000       1.17273366
Co       0.00000000       0.00000000       2.54343434       0.00000000       0.00000000      -1.17273366
2
Properties=species:S:1:pos:R:3:forces:R:3 energy=-6.401672727870342 pbc="F F F"
Co       0.00000000       0.00000000       0.00000000       0.00000000       0.00000000       1.15155005
Co       0.00000000       0.00000000       2.60303030       0.00000000       0.00000000      -1.15155005
2
Properties=species:S:1:pos:R:3:forces:R:3 energy=-6.334710180617574 pbc="F F F"
Co       0.00000000       0.00000000       0.00000000       0.00000000       0.00000000       1.09068167
Co       0.00000000       0.00000000       2.66262626       0.00000000       0.00000000      -1.09068167
2
Properties=species:S:1:pos:R:3:forces:R:3 energy=-6.271944734506593 pbc="F F F"
Co       0.00000000       0.00000000       0.00000000       0.00000000       0.00000000       1.01531339
Co       0.00000000       0.00000000       2.72222222       0.00000000       0.00000000      -1.01531339
2
Properties=species:S:1:pos:R:3:forces:R:3 energy=-6.213563047344552 pbc="F F F"
Co       0.00000000       0.00000000       0.00000000       0.00000000       0.00000000       0.94665372
Co       0.00000000       0.00000000       2.78181818       0.00000000       0.00000000      -0.94665372
2
Properties=species:S:1:pos:R:3:forces:R:3 energy=-6.158643632277602 pbc="F F F"
Co       0.00000000       0.00000000       0.00000000       0.00000000       0.00000000       0.90066087
Co       0.00000000       0.00000000       2.84141414       0.00000000       0.00000000      -0.90066087
2
Properties=species:S:1:pos:R:3:forces:R:3 energy=-6.105806766659045 pbc="F F F"
Co       0.00000000       0.00000000       0.00000000       0.00000000       0.00000000       0.87470478
Co       0.00000000       0.00000000       2.90101010       0.00000000       0.00000000      -0.87470478
2
Properties=species:S:1:pos:R:3:forces:R:3 energy=-6.054239393858463 pbc="F F F"
Co       0.00000000       0.00000000       0.00000000       0.00000000       0.00000000       0.85649925
Co       0.00000000       0.00000000       2.96060606       0.00000000       0.00000000      -0.85649925
2
Properties=species:S:1:pos:R:3:forces:R:3 energy=-6.003652344489697 pbc="F F F"
Co       0.00000000       0.00000000       0.00000000       0.00000000       0.00000000       0.84166324
Co       0.00000000       0.00000000       3.02020202       0.00000000       0.00000000      -0.84166324
2
Properties=species:S:1:pos:R:3:forces:R:3 energy=-5.9539061099895445 pbc="F F F"
Co       0.00000000       0.00000000       0.00000000       0.00000000       0.00000000       0.82736725
Co       0.00000000       0.00000000       3.07979798       0.00000000       0.00000000      -0.82736725
2
Properties=species:S:1:pos:R:3:forces:R:3 energy=-5.905147998673399 pbc="F F F"
Co       0.00000000       0.00000000       0.00000000       0.00000000       0.00000000       0.80768049
Co       0.00000000       0.00000000       3.13939394       0.00000000       0.00000000      -0.80768049
2
Properties=species:S:1:pos:R:3:forces:R:3 energy=-5.857778806155483 pbc="F F F"
Co       0.00000000       0.00000000       0.00000000       0.00000000       0.00000000       0.78096646
Co       0.00000000       0.00000000       3.19898990       0.00000000       0.00000000      -0.78096646
2
Properties=species:S:1:pos:R:3:forces:R:3 energy=-5.812176572914963 pbc="F F F"
Co       0.00000000       0.00000000       0.00000000       0.00000000       0.00000000       0.74836546
Co       0.00000000       0.00000000       3.25858586       0.00000000       0.00000000      -0.74836546
2
Properties=species:S:1:pos:R:3:forces:R:3 energy=-5.768726783428009 pbc="F F F"
Co       0.00000000       0.00000000       0.00000000       0.00000000       0.00000000       0.70838571
Co       0.00000000       0.00000000       3.31818182       0.00000000       0.00000000      -0.70838571
2
Properties=species:S:1:pos:R:3:forces:R:3 energy=-5.727923588693874 pbc="F F F"
Co       0.00000000       0.00000000       0.00000000       0.00000000       0.00000000       0.65944582
Co       0.00000000       0.00000000       3.37777778       0.00000000       0.00000000      -0.65944582
2
Properties=species:S:1:pos:R:3:forces:R:3 energy=-5.690270643112919 pbc="F F F"
Co       0.00000000       0.00000000       0.00000000       0.00000000       0.00000000       0.60328245
Co       0.00000000       0.00000000       3.43737374       0.00000000       0.00000000      -0.60328245
2
Properties=species:S:1:pos:R:3:forces:R:3 energy=-5.656077252601738 pbc="F F F"
Co       0.00000000       0.00000000       0.00000000       0.00000000       0.00000000       0.54414350
Co       0.00000000       0.00000000       3.49696970       0.00000000       0.00000000      -0.54414350
2
Properties=species:S:1:pos:R:3:forces:R:3 energy=-5.625388743696773 pbc="F F F"
Co       0.00000000       0.00000000       0.00000000       0.00000000       0.00000000       0.48612091
Co       0.00000000       0.00000000       3.55656566       0.00000000       0.00000000      -0.48612091
2
Properties=species:S:1:pos:R:3:forces:R:3 energy=-5.598065783249329 pbc="F F F"
Co       0.00000000       0.00000000       0.00000000       0.00000000       0.00000000       0.43148401
Co       0.00000000       0.00000000       3.61616162       0.00000000       0.00000000      -0.43148401
2
Properties=species:S:1:pos:R:3:forces:R:3 energy=-5.573881182704329 pbc="F F F"
Co       0.00000000       0.00000000       0.00000000       0.00000000       0.00000000       0.38079616
Co       0.00000000       0.00000000       3.67575758       0.00000000       0.00000000      -0.38079616
2
Properties=species:S:1:pos:R:3:forces:R:3 energy=-5.552602492299001 pbc="F F F"
Co       0.00000000       0.00000000       0.00000000       0.00000000       0.00000000       0.33392233
Co       0.00000000       0.00000000       3.73535354       0.00000000       0.00000000      -0.33392233
2
Properties=species:S:1:pos:R:3:forces:R:3 energy=-5.534005886361253 pbc="F F F"
Co       0.00000000       0.00000000       0.00000000       0.00000000       0.00000000       0.29080462
Co       0.00000000       0.00000000       3.79494949       0.00000000       0.00000000      -0.29080462
2
Properties=species:S:1:pos:R:3:forces:R:3 energy=-5.51786325702819 pbc="F F F"
Co       0.00000000       0.00000000       0.00000000       0.00000000       0.00000000       0.25162646
Co       0.00000000       0.00000000       3.85454545       0.00000000       0.00000000      -0.25162646
2
Properties=species:S:1:pos:R:3:forces:R:3 energy=-5.503933179682678 pbc="F F F"
Co       0.00000000       0.00000000       0.00000000       0.00000000       0.00000000       0.21659099
Co       0.00000000       0.00000000       3.91414141       0.00000000       0.00000000      -0.21659099
2
Properties=species:S:1:pos:R:3:forces:R:3 energy=-5.491965605297199 pbc="F F F"
Co       0.00000000       0.00000000       0.00000000       0.00000000       0.00000000       0.18567032
Co       0.00000000       0.00000000       3.97373737       0.00000000       0.00000000      -0.18567032
2
Properties=species:S:1:pos:R:3:forces:R:3 energy=-5.4817266052809215 pbc="F F F"
Co       0.00000000       0.00000000       0.00000000       0.00000000       0.00000000       0.15854824
Co       0.00000000       0.00000000       4.03333333       0.00000000       0.00000000      -0.15854824
2
Properties=species:S:1:pos:R:3:forces:R:3 energy=-5.4730015509487 pbc="F F F"
Co       0.00000000       0.00000000       0.00000000       0.00000000       0.00000000       0.13476248
Co       0.00000000       0.00000000       4.09292929       0.00000000       0.00000000      -0.13476248
2
Properties=species:S:1:pos:R:3:forces:R:3 energy=-5.465605559589048 pbc="F F F"
Co       0.00000000       0.00000000       0.00000000       0.00000000       0.00000000       0.11390169
Co       0.00000000       0.00000000       4.15252525       0.00000000       0.00000000      -0.11390169
2
Properties=species:S:1:pos:R:3:forces:R:3 energy=-5.459373221122396 pbc="F F F"
Co       0.00000000       0.00000000       0.00000000       0.00000000       0.00000000       0.09571017
Co       0.00000000       0.00000000       4.21212121       0.00000000       0.00000000      -0.09571017
2
Properties=species:S:1:pos:R:3:forces:R:3 energy=-5.454147008289479 pbc="F F F"
Co       0.00000000       0.00000000       0.00000000       0.00000000       0.00000000       0.08005951
Co       0.00000000       0.00000000       4.27171717       0.00000000       0.00000000      -0.08005951
2
Properties=species:S:1:pos:R:3:forces:R:3 energy=-5.449780955132247 pbc="F F F"
Co       0.00000000       0.00000000       0.00000000       0.00000000       0.00000000       0.06684934
Co       0.00000000       0.00000000       4.33131313       0.00000000       0.00000000      -0.06684934
2
Properties=species:S:1:pos:R:3:forces:R:3 energy=-5.446134201517216 pbc="F F F"
Co       0.00000000       0.00000000       0.00000000       0.00000000       0.00000000       0.05591284
Co       0.00000000       0.00000000       4.39090909       0.00000000       0.00000000      -0.05591284
2
Properties=species:S:1:pos:R:3:forces:R:3 energy=-5.443077557981909 pbc="F F F"
Co       0.00000000       0.00000000       0.00000000       0.00000000       0.00000000       0.04698592
Co       0.00000000       0.00000000       4.45050505       0.00000000       0.00000000      -0.04698592
2
Properties=species:S:1:pos:R:3:forces:R:3 energy=-5.440499543058979 pbc="F F F"
Co       0.00000000       0.00000000       0.00000000       0.00000000       0.00000000       0.03973628
Co       0.00000000       0.00000000       4.51010101       0.00000000       0.00000000      -0.03973628
2
Properties=species:S:1:pos:R:3:forces:R:3 energy=-5.438313743405862 pbc="F F F"
Co       0.00000000       0.00000000       0.00000000       0.00000000       0.00000000       0.03382529
Co       0.00000000       0.00000000       4.56969697       0.00000000       0.00000000      -0.03382529
2
Properties=species:S:1:pos:R:3:forces:R:3 energy=-5.436447480586753 pbc="F F F"
Co       0.00000000       0.00000000       0.00000000       0.00000000       0.00000000       0.02896480
Co       0.00000000       0.00000000       4.62929293       0.00000000       0.00000000      -0.02896480
2
Properties=species:S:1:pos:R:3:forces:R:3 energy=-5.4348434744989325 pbc="F F F"
Co       0.00000000       0.00000000       0.00000000       0.00000000       0.00000000       0.02494534
Co       0.00000000       0.00000000       4.68888889       0.00000000       0.00000000      -0.02494534
2
Properties=species:S:1:pos:R:3:forces:R:3 energy=-5.43346078754362 pbc="F F F"
Co       0.00000000       0.00000000       0.00000000       0.00000000       0.00000000       0.02163491
Co       0.00000000       0.00000000       4.74848485       0.00000000       0.00000000      -0.02163491
2
Properties=species:S:1:pos:R:3:forces:R:3 energy=-5.432254749947995 pbc="F F F"
Co       0.00000000       0.00000000       0.00000000       0.00000000       0.00000000       0.01896138
Co       0.00000000       0.00000000       4.80808081       0.00000000       0.00000000      -0.01896138
2
Properties=species:S:1:pos:R:3:forces:R:3 energy=-5.431187984040632 pbc="F F F"
Co       0.00000000       0.00000000       0.00000000       0.00000000       0.00000000       0.01689020
Co       0.00000000       0.00000000       4.86767677       0.00000000       0.00000000      -0.01689020
2
Properties=species:S:1:pos:R:3:forces:R:3 energy=-5.4302280359048245 pbc="F F F"
Co       0.00000000       0.00000000       0.00000000       0.00000000       0.00000000       0.01540546
Co       0.00000000       0.00000000       4.92727273       0.00000000       0.00000000      -0.01540546
2
Properties=species:S:1:pos:R:3:forces:R:3 energy=-5.429340663228414 pbc="F F F"
Co       0.00000000       0.00000000       0.00000000       0.00000000       0.00000000       0.01449347
Co       0.00000000       0.00000000       4.98686869       0.00000000       0.00000000      -0.01449347
2
Properties=species:S:1:pos:R:3:forces:R:3 energy=-5.42849047845161 pbc="F F F"
Co       0.00000000       0.00000000       0.00000000       0.00000000       0.00000000       0.01412605
Co       0.00000000       0.00000000       5.04646465       0.00000000       0.00000000      -0.01412605
2
Properties=species:S:1:pos:R:3:forces:R:3 energy=-5.427647578553783 pbc="F F F"
Co       0.00000000       0.00000000       0.00000000       0.00000000       0.00000000       0.01424450
Co       0.00000000       0.00000000       5.10606061       0.00000000       0.00000000      -0.01424450
2
Properties=species:S:1:pos:R:3:forces:R:3 energy=-5.426785324010519 pbc="F F F"
Co       0.00000000       0.00000000       0.00000000       0.00000000       0.00000000       0.01474626
Co       0.00000000       0.00000000       5.16565657       0.00000000       0.00000000      -0.01474626
2
Properties=species:S:1:pos:R:3:forces:R:3 energy=-5.425884194672563 pbc="F F F"
Co       0.00000000       0.00000000       0.00000000       0.00000000       0.00000000       0.01548223
Co       0.00000000       0.00000000       5.22525253       0.00000000       0.00000000      -0.01548223
2
Properties=species:S:1:pos:R:3:forces:R:3 energy=-5.424938516171204 pbc="F F F"
Co       0.00000000       0.00000000       0.00000000       0.00000000       0.00000000       0.01627057
Co       0.00000000       0.00000000       5.28484848       0.00000000       0.00000000      -0.01627057
2
Properties=species:S:1:pos:R:3:forces:R:3 energy=-5.423948466144252 pbc="F F F"
Co       0.00000000       0.00000000       0.00000000       0.00000000       0.00000000       0.01692273
Co       0.00000000       0.00000000       5.34444444       0.00000000       0.00000000      -0.01692273
2
Properties=species:S:1:pos:R:3:forces:R:3 energy=-5.422928696902681 pbc="F F F"
Co       0.00000000       0.00000000       0.00000000       0.00000000       0.00000000       0.01727746
Co       0.00000000       0.00000000       5.40404040       0.00000000       0.00000000      -0.01727746
2
Properties=species:S:1:pos:R:3:forces:R:3 energy=-5.421896962614819 pbc="F F F"
Co       0.00000000       0.00000000       0.00000000       0.00000000       0.00000000       0.01723258
Co       0.00000000       0.00000000       5.46363636       0.00000000       0.00000000      -0.01723258
2
Properties=species:S:1:pos:R:3:forces:R:3 energy=-5.420882282558839 pbc="F F F"
Co       0.00000000       0.00000000       0.00000000       0.00000000       0.00000000       0.01676145
Co       0.00000000       0.00000000       5.52323232       0.00000000       0.00000000      -0.01676145
2
Properties=species:S:1:pos:R:3:forces:R:3 energy=-5.419906406246124 pbc="F F F"
Co       0.00000000       0.00000000       0.00000000       0.00000000       0.00000000       0.01591579
Co       0.00000000       0.00000000       5.58282828       0.00000000       0.00000000      -0.01591579
2
Properties=species:S:1:pos:R:3:forces:R:3 energy=-5.418990965978634 pbc="F F F"
Co       0.00000000       0.00000000       0.00000000       0.00000000       0.00000000       0.01480584
Co       0.00000000       0.00000000       5.64242424       0.00000000       0.00000000      -0.01480584
2
Properties=species:S:1:pos:R:3:forces:R:3 energy=-5.418144218859237 pbc="F F F"
Co       0.00000000       0.00000000       0.00000000       0.00000000       0.00000000       0.01357280
Co       0.00000000       0.00000000       5.70202020       0.00000000       0.00000000      -0.01357280
2
Properties=species:S:1:pos:R:3:forces:R:3 energy=-5.4173720187980745 pbc="F F F"
Co       0.00000000       0.00000000       0.00000000       0.00000000       0.00000000       0.01235686
Co       0.00000000       0.00000000       5.76161616       0.00000000       0.00000000      -0.01235686
2
Properties=species:S:1:pos:R:3:forces:R:3 energy=-5.416669719784341 pbc="F F F"
Co       0.00000000       0.00000000       0.00000000       0.00000000       0.00000000       0.01126701
Co       0.00000000       0.00000000       5.82121212       0.00000000       0.00000000      -0.01126701
2
Properties=species:S:1:pos:R:3:forces:R:3 energy=-5.416025093930034 pbc="F F F"
Co       0.00000000       0.00000000       0.00000000       0.00000000       0.00000000       0.01036104
Co       0.00000000       0.00000000       5.88080808       0.00000000       0.00000000      -0.01036104
2
Properties=species:S:1:pos:R:3:forces:R:3 energy=-5.415430238143706 pbc="F F F"
Co       0.00000000       0.00000000       0.00000000       0.00000000       0.00000000       0.00963628
Co       0.00000000       0.00000000       5.94040404       0.00000000       0.00000000      -0.00963628
2
Properties=species:S:1:pos:R:3:forces:R:3 energy=-5.41487446117087 pbc="F F F"
Co       0.00000000       0.00000000       0.00000000       0.00000000       0.00000000       0.00903741
Co       0.00000000       0.00000000       6.00000000       0.00000000       0.00000000      -0.00903741
