2
Properties=species:S:1:pos:R:3:forces:R:3 energy=68661.41988831059 pbc="F F F"
Cr       0.00000000       0.00000000       0.00000000       0.00000000       0.00000000 -2229353.75000000
Cr       0.00000000       0.00000000       0.18000000       0.00000000       0.00000000 2229353.75000000
2
Properties=species:S:1:pos:R:3:forces:R:3 energy=-25197.134799189414 pbc="F F F"
Cr       0.00000000       0.00000000       0.00000000       0.00000000       0.00000000 -956462.18750000
Cr       0.00000000       0.00000000       0.23878788       0.00000000       0.00000000  956462.18750000
2
Properties=species:S:1:pos:R:3:forces:R:3 energy=-49087.93558043625 pbc="F F F"
Cr       0.00000000       0.00000000       0.00000000       0.00000000       0.00000000  483993.46875000
Cr       0.00000000       0.00000000       0.29757576       0.00000000       0.00000000 -483993.46875000
2
Properties=species:S:1:pos:R:3:forces:R:3 energy=-21473.55276793308 pbc="F F F"
Cr       0.00000000       0.00000000       0.00000000       0.00000000       0.00000000  413255.65625000
Cr       0.00000000       0.00000000       0.35636364       0.00000000       0.00000000 -413255.65625000
2
Properties=species:S:1:pos:R:3:forces:R:3 energy=-6024.226107770493 pbc="F F F"
Cr       0.00000000       0.00000000       0.00000000       0.00000000       0.00000000  128652.51562500
Cr       0.00000000       0.00000000       0.41515152       0.00000000       0.00000000 -128652.51562500
2
Properties=species:S:1:pos:R:3:forces:R:3 energy=-1702.8222991577363 pbc="F F F"
Cr       0.00000000       0.00000000       0.00000000       0.00000000       0.00000000   45783.77343750
Cr       0.00000000       0.00000000       0.47393939       0.00000000       0.00000000  -45783.77343750
2
Properties=species:S:1:pos:R:3:forces:R:3 energy=-83.30277550228487 pbc="F F F"
Cr       0.00000000       0.00000000       0.00000000       0.00000000       0.00000000   20668.52734375
Cr       0.00000000       0.00000000       0.53272727       0.00000000       0.00000000  -20668.52734375
2
Properties=species:S:1:pos:R:3:forces:R:3 energy=206.99703687163046 pbc="F F F"
Cr       0.00000000       0.00000000       0.00000000       0.00000000       0.00000000     941.55590820
Cr       0.00000000       0.00000000       0.59151515       0.00000000       0.00000000    -941.55590820
2
Properties=species:S:1:pos:R:3:forces:R:3 energy=166.43026450572762 pbc="F F F"
Cr       0.00000000       0.00000000       0.00000000       0.00000000       0.00000000   -1804.68762207
Cr       0.00000000       0.00000000       0.65030303       0.00000000       0.00000000    1804.68762207
2
Properties=species:S:1:pos:R:3:forces:R:3 energy=90.70930213336902 pbc="F F F"
Cr       0.00000000       0.00000000       0.00000000       0.00000000       0.00000000    -751.83306885
Cr       0.00000000       0.00000000       0.70909091       0.00000000       0.00000000     751.83306885
2
Properties=species:S:1:pos:R:3:forces:R:3 energy=56.383344109499085 pbc="F F F"
Cr       0.00000000       0.00000000       0.00000000       0.00000000       0.00000000    -429.58969116
Cr       0.00000000       0.00000000       0.76787879       0.00000000       0.00000000     429.58969116
2
Properties=species:S:1:pos:R:3:forces:R:3 energy=38.523534569799956 pbc="F F F"
Cr       0.00000000       0.00000000       0.00000000       0.00000000       0.00000000    -191.13066101
Cr       0.00000000       0.00000000       0.82666667       0.00000000       0.00000000     191.13066101
2
Properties=species:S:1:pos:R:3:forces:R:3 energy=28.407284062655453 pbc="F F F"
Cr       0.00000000       0.00000000       0.00000000       0.00000000       0.00000000    -156.86962891
Cr       0.00000000       0.00000000       0.88545455       0.00000000       0.00000000     156.86962891
2
Properties=species:S:1:pos:R:3:forces:R:3 energy=19.007111556481355 pbc="F F F"
Cr       0.00000000       0.00000000       0.00000000       0.00000000       0.00000000    -169.78596497
Cr       0.00000000       0.00000000       0.94424242       0.00000000       0.00000000     169.78596497
2
Properties=species:S:1:pos:R:3:forces:R:3 energy=11.163690548618089 pbc="F F F"
Cr       0.00000000       0.00000000       0.00000000       0.00000000       0.00000000     -74.35093689
Cr       0.00000000       0.00000000       1.00303030       0.00000000       0.00000000      74.35093689
2
Properties=species:S:1:pos:R:3:forces:R:3 energy=9.215922641204418 pbc="F F F"
Cr       0.00000000       0.00000000       0.00000000       0.00000000       0.00000000     -21.28322220
Cr       0.00000000       0.00000000       1.06181818       0.00000000       0.00000000      21.28322220
2
Properties=species:S:1:pos:R:3:forces:R:3 energy=7.74674516037213 pbc="F F F"
Cr       0.00000000       0.00000000       0.00000000       0.00000000       0.00000000     -27.56878853
Cr       0.00000000       0.00000000       1.12060606       0.00000000       0.00000000      27.56878853
2
Properties=species:S:1:pos:R:3:forces:R:3 energy=5.723534916475906 pbc="F F F"
Cr       0.00000000       0.00000000       0.00000000       0.00000000       0.00000000     -45.43665695
Cr       0.00000000       0.00000000       1.17939394       0.00000000       0.00000000      45.43665695
2
Properties=species:S:1:pos:R:3:forces:R:3 energy=2.61406356638 pbc="F F F"
Cr       0.00000000       0.00000000       0.00000000       0.00000000       0.00000000     -55.65847397
Cr       0.00000000       0.00000000       1.23818182       0.00000000       0.00000000      55.65847397
2
Properties=species:S:1:pos:R:3:forces:R:3 energy=-0.3843192021915699 pbc="F F F"
Cr       0.00000000       0.00000000       0.00000000       0.00000000       0.00000000     -46.77237320
Cr       0.00000000       0.00000000       1.29696970       0.00000000       0.00000000      46.77237320
2
Properties=species:S:1:pos:R:3:forces:R:3 energy=-2.8829184423215253 pbc="F F F"
Cr       0.00000000       0.00000000       0.00000000       0.00000000       0.00000000     -37.72669220
Cr       0.00000000       0.00000000       1.35575758       0.00000000       0.00000000      37.72669220
2
Properties=species:S:1:pos:R:3:forces:R:3 energy=-4.99240119580709 pbc="F F F"
Cr       0.00000000       0.00000000       0.00000000       0.00000000       0.00000000     -34.14645386
Cr       0.00000000       0.00000000       1.41454545       0.00000000       0.00000000      34.14645386
2
Properties=species:S:1:pos:R:3:forces:R:3 energy=-6.828336342914483 pbc="F F F"
Cr       0.00000000       0.00000000       0.00000000       0.00000000       0.00000000     -27.93202591
Cr       0.00000000       0.00000000       1.47333333       0.00000000       0.00000000      27.93202591
2
Properties=species:S:1:pos:R:3:forces:R:3 energy=-8.273671583649085 pbc="F F F"
Cr       0.00000000       0.00000000       0.00000000       0.00000000       0.00000000     -21.29132652
Cr       0.00000000       0.00000000       1.53212121       0.00000000       0.00000000      21.29132652
2
Properties=species:S:1:pos:R:3:forces:R:3 energy=-9.337930011959246 pbc="F F F"
Cr       0.00000000       0.00000000       0.00000000       0.00000000       0.00000000     -15.07097054
Cr       0.00000000       0.00000000       1.59090909       0.00000000       0.00000000      15.07097054
2
Properties=species:S:1:pos:R:3:forces:R:3 energy=-10.078326174714114 pbc="F F F"
Cr       0.00000000       0.00000000       0.00000000       0.00000000       0.00000000     -10.69017696
Cr       0.00000000       0.00000000       1.64969697       0.00000000       0.00000000      10.69017696
2
Properties=species:S:1:pos:R:3:forces:R:3 energy=-10.641593226029562 pbc="F F F"
Cr       0.00000000       0.00000000       0.00000000       0.00000000       0.00000000      -8.60055256
Cr       0.00000000       0.00000000       1.70848485       0.00000000       0.00000000       8.60055256
2
Properties=species:S:1:pos:R:3:forces:R:3 energy=-11.087728854380048 pbc="F F F"
Cr       0.00000000       0.00000000       0.00000000       0.00000000       0.00000000      -6.62151766
Cr       0.00000000       0.00000000       1.76727273       0.00000000       0.00000000       6.62151766
2
Properties=species:S:1:pos:R:3:forces:R:3 energy=-11.426994405180928 pbc="F F F"
Cr       0.00000000       0.00000000       0.00000000       0.00000000       0.00000000      -4.83114624
Cr       0.00000000       0.00000000       1.82606061       0.00000000       0.00000000       4.83114624
2
Properties=species:S:1:pos:R:3:forces:R:3 energy=-11.659537631107275 pbc="F F F"
Cr       0.00000000       0.00000000       0.00000000       0.00000000       0.00000000      -3.19774604
Cr       0.00000000       0.00000000       1.88484848       0.00000000       0.00000000       3.19774604
2
Properties=species:S:1:pos:R:3:forces:R:3 energy=-11.814123230908562 pbc="F F F"
Cr       0.00000000       0.00000000       0.00000000       0.00000000       0.00000000      -2.13380694
Cr       0.00000000       0.00000000       1.94363636       0.00000000       0.00000000       2.13380694
2
Properties=species:S:1:pos:R:3:forces:R:3 energy=-11.915406203283245 pbc="F F F"
Cr       0.00000000       0.00000000       0.00000000       0.00000000       0.00000000      -1.34797800
Cr       0.00000000       0.00000000       2.00242424       0.00000000       0.00000000       1.34797800
2
Properties=species:S:1:pos:R:3:forces:R:3 energy=-11.980289013411024 pbc="F F F"
Cr       0.00000000       0.00000000       0.00000000       0.00000000       0.00000000      -0.93950558
Cr       0.00000000       0.00000000       2.06121212       0.00000000       0.00000000       0.93950558
2
Properties=species:S:1:pos:R:3:forces:R:3 energy=-12.033040758451435 pbc="F F F"
Cr       0.00000000       0.00000000       0.00000000       0.00000000       0.00000000      -0.89249200
Cr       0.00000000       0.00000000       2.12000000       0.00000000       0.00000000       0.89249200
2
Properties=species:S:1:pos:R:3:forces:R:3 energy=-12.087143785902633 pbc="F F F"
Cr       0.00000000       0.00000000       0.00000000       0.00000000       0.00000000      -0.94891512
Cr       0.00000000       0.00000000       2.17878788       0.00000000       0.00000000       0.94891512
2
Properties=species:S:1:pos:R:3:forces:R:3 energy=-12.144133799278624 pbc="F F F"
Cr       0.00000000       0.00000000       0.00000000       0.00000000       0.00000000      -0.98489302
Cr       0.00000000       0.00000000       2.23757576       0.00000000       0.00000000       0.98489302
2
Properties=species:S:1:pos:R:3:forces:R:3 energy=-12.202293725010087 pbc="F F F"
Cr       0.00000000       0.00000000       0.00000000       0.00000000       0.00000000      -0.99087888
Cr       0.00000000       0.00000000       2.29636364       0.00000000       0.00000000       0.99087888
2
Properties=species:S:1:pos:R:3:forces:R:3 energy=-12.261658331339367 pbc="F F F"
Cr       0.00000000       0.00000000       0.00000000       0.00000000       0.00000000      -1.04468155
Cr       0.00000000       0.00000000       2.35515152       0.00000000       0.00000000       1.04468155
2
Properties=species:S:1:pos:R:3:forces:R:3 energy=-12.325478292088478 pbc="F F F"
Cr       0.00000000       0.00000000       0.00000000       0.00000000       0.00000000      -1.11402023
Cr       0.00000000       0.00000000       2.41393939       0.00000000       0.00000000       1.11402023
2
Properties=species:S:1:pos:R:3:forces:R:3 energy=-12.391121312807417 pbc="F F F"
Cr       0.00000000       0.00000000       0.00000000       0.00000000       0.00000000      -1.11379528
Cr       0.00000000       0.00000000       2.47272727       0.00000000       0.00000000       1.11379528
2
Properties=species:S:1:pos:R:3:forces:R:3 energy=-12.456386762071057 pbc="F F F"
Cr       0.00000000       0.00000000       0.00000000       0.00000000       0.00000000      -1.10630095
Cr       0.00000000       0.00000000       2.53151515       0.00000000       0.00000000       1.10630095
2
Properties=species:S:1:pos:R:3:forces:R:3 energy=-12.521006597451553 pbc="F F F"
Cr       0.00000000       0.00000000       0.00000000       0.00000000       0.00000000      -1.08981454
Cr       0.00000000       0.00000000       2.59030303       0.00000000       0.00000000       1.08981454
2
Properties=species:S:1:pos:R:3:forces:R:3 energy=-12.584033929601272 pbc="F F F"
Cr       0.00000000       0.00000000       0.00000000       0.00000000       0.00000000      -1.04719198
Cr       0.00000000       0.00000000       2.64909091       0.00000000       0.00000000       1.04719198
2
Properties=species:S:1:pos:R:3:forces:R:3 energy=-12.643007343141747 pbc="F F F"
Cr       0.00000000       0.00000000       0.00000000       0.00000000       0.00000000      -0.94951308
Cr       0.00000000       0.00000000       2.70787879       0.00000000       0.00000000       0.94951308
2
Properties=species:S:1:pos:R:3:forces:R:3 energy=-12.694957746149516 pbc="F F F"
Cr       0.00000000       0.00000000       0.00000000       0.00000000       0.00000000      -0.81620950
Cr       0.00000000       0.00000000       2.76666667       0.00000000       0.00000000       0.81620950
2
Properties=species:S:1:pos:R:3:forces:R:3 energy=-12.739130659727895 pbc="F F F"
Cr       0.00000000       0.00000000       0.00000000       0.00000000       0.00000000      -0.68931520
Cr       0.00000000       0.00000000       2.82545455       0.00000000       0.00000000       0.68931520
2
Properties=species:S:1:pos:R:3:forces:R:3 energy=-12.77630013342678 pbc="F F F"
Cr       0.00000000       0.00000000       0.00000000       0.00000000       0.00000000      -0.57711971
Cr       0.00000000       0.00000000       2.88424242       0.00000000       0.00000000       0.57711971
2
Properties=species:S:1:pos:R:3:forces:R:3 energy=-12.80712105008494 pbc="F F F"
Cr       0.00000000       0.00000000       0.00000000       0.00000000       0.00000000      -0.47191164
Cr       0.00000000       0.00000000       2.94303030       0.00000000       0.00000000       0.47191164
2
Properties=species:S:1:pos:R:3:forces:R:3 energy=-12.831806651460006 pbc="F F F"
Cr       0.00000000       0.00000000       0.00000000       0.00000000       0.00000000      -0.36792076
Cr       0.00000000       0.00000000       3.00181818       0.00000000       0.00000000       0.36792076
2
Properties=species:S:1:pos:R:3:forces:R:3 energy=-12.850394375977874 pbc="F F F"
Cr       0.00000000       0.00000000       0.00000000       0.00000000       0.00000000      -0.26486987
Cr       0.00000000       0.00000000       3.06060606       0.00000000       0.00000000       0.26486987
2
Properties=species:S:1:pos:R:3:forces:R:3 energy=-12.863049094875635 pbc="F F F"
Cr       0.00000000       0.00000000       0.00000000       0.00000000       0.00000000      -0.16694669
Cr       0.00000000       0.00000000       3.11939394       0.00000000       0.00000000       0.16694669
2
Properties=species:S:1:pos:R:3:forces:R:3 energy=-12.87020875546995 pbc="F F F"
Cr       0.00000000       0.00000000       0.00000000       0.00000000       0.00000000      -0.07836284
Cr       0.00000000       0.00000000       3.17818182       0.00000000       0.00000000       0.07836284
2
Properties=species:S:1:pos:R:3:forces:R:3 energy=-12.87248566735711 pbc="F F F"
Cr       0.00000000       0.00000000       0.00000000       0.00000000       0.00000000      -0.00106617
Cr       0.00000000       0.00000000       3.23696970       0.00000000       0.00000000       0.00106617
2
Properties=species:S:1:pos:R:3:forces:R:3 energy=-12.870572809960048 pbc="F F F"
Cr       0.00000000       0.00000000       0.00000000       0.00000000       0.00000000       0.06398018
Cr       0.00000000       0.00000000       3.29575758       0.00000000       0.00000000      -0.06398018
2
Properties=species:S:1:pos:R:3:forces:R:3 energy=-12.865216156646541 pbc="F F F"
Cr       0.00000000       0.00000000       0.00000000       0.00000000       0.00000000       0.11607656
Cr       0.00000000       0.00000000       3.35454545       0.00000000       0.00000000      -0.11607656
2
Properties=species:S:1:pos:R:3:forces:R:3 energy=-12.857173238917758 pbc="F F F"
Cr       0.00000000       0.00000000       0.00000000       0.00000000       0.00000000       0.15558687
Cr       0.00000000       0.00000000       3.41333333       0.00000000       0.00000000      -0.15558687
2
Properties=species:S:1:pos:R:3:forces:R:3 energy=-12.847135458301501 pbc="F F F"
Cr       0.00000000       0.00000000       0.00000000       0.00000000       0.00000000       0.18428718
Cr       0.00000000       0.00000000       3.47212121       0.00000000       0.00000000      -0.18428718
2
Properties=species:S:1:pos:R:3:forces:R:3 energy=-12.8356707328447 pbc="F F F"
Cr       0.00000000       0.00000000       0.00000000       0.00000000       0.00000000       0.20453069
Cr       0.00000000       0.00000000       3.53090909       0.00000000       0.00000000      -0.20453069
2
Properties=species:S:1:pos:R:3:forces:R:3 energy=-12.823217163517983 pbc="F F F"
Cr       0.00000000       0.00000000       0.00000000       0.00000000       0.00000000       0.21815072
Cr       0.00000000       0.00000000       3.58969697       0.00000000       0.00000000      -0.21815072
2
Properties=species:S:1:pos:R:3:forces:R:3 energy=-12.810131690612746 pbc="F F F"
Cr       0.00000000       0.00000000       0.00000000       0.00000000       0.00000000       0.22611289
Cr       0.00000000       0.00000000       3.64848485       0.00000000       0.00000000      -0.22611289
2
Properties=species:S:1:pos:R:3:forces:R:3 energy=-12.796733110455701 pbc="F F F"
Cr       0.00000000       0.00000000       0.00000000       0.00000000       0.00000000       0.22891960
Cr       0.00000000       0.00000000       3.70727273       0.00000000       0.00000000      -0.22891960
2
Properties=species:S:1:pos:R:3:forces:R:3 energy=-12.783307854475574 pbc="F F F"
Cr       0.00000000       0.00000000       0.00000000       0.00000000       0.00000000       0.22713567
Cr       0.00000000       0.00000000       3.76606061       0.00000000       0.00000000      -0.22713567
2
Properties=species:S:1:pos:R:3:forces:R:3 energy=-12.770100534823316 pbc="F F F"
Cr       0.00000000       0.00000000       0.00000000       0.00000000       0.00000000       0.22160274
Cr       0.00000000       0.00000000       3.82484848       0.00000000       0.00000000      -0.22160274
2
Properties=species:S:1:pos:R:3:forces:R:3 energy=-12.75730534229632 pbc="F F F"
Cr       0.00000000       0.00000000       0.00000000       0.00000000       0.00000000       0.21332753
Cr       0.00000000       0.00000000       3.88363636       0.00000000       0.00000000      -0.21332753
2
Properties=species:S:1:pos:R:3:forces:R:3 energy=-12.745053699257467 pbc="F F F"
Cr       0.00000000       0.00000000       0.00000000       0.00000000       0.00000000       0.20325010
Cr       0.00000000       0.00000000       3.94242424       0.00000000       0.00000000      -0.20325010
2
Properties=species:S:1:pos:R:3:forces:R:3 energy=-12.733429417053877 pbc="F F F"
Cr       0.00000000       0.00000000       0.00000000       0.00000000       0.00000000       0.19209343
Cr       0.00000000       0.00000000       4.00121212       0.00000000       0.00000000      -0.19209343
2
Properties=species:S:1:pos:R:3:forces:R:3 energy=-12.722479104071013 pbc="F F F"
Cr       0.00000000       0.00000000       0.00000000       0.00000000       0.00000000       0.18037488
Cr       0.00000000       0.00000000       4.06000000       0.00000000       0.00000000      -0.18037488
2
Properties=species:S:1:pos:R:3:forces:R:3 energy=-12.712224538156217 pbc="F F F"
Cr       0.00000000       0.00000000       0.00000000       0.00000000       0.00000000       0.16849937
Cr       0.00000000       0.00000000       4.11878788       0.00000000       0.00000000      -0.16849937
2
Properties=species:S:1:pos:R:3:forces:R:3 energy=-12.702663423888058 pbc="F F F"
Cr       0.00000000       0.00000000       0.00000000       0.00000000       0.00000000       0.15681268
Cr       0.00000000       0.00000000       4.17757576       0.00000000       0.00000000      -0.15681268
2
Properties=species:S:1:pos:R:3:forces:R:3 energy=-12.693778701236294 pbc="F F F"
Cr       0.00000000       0.00000000       0.00000000       0.00000000       0.00000000       0.14558956
Cr       0.00000000       0.00000000       4.23636364       0.00000000       0.00000000      -0.14558956
2
Properties=species:S:1:pos:R:3:forces:R:3 energy=-12.685532753823889 pbc="F F F"
Cr       0.00000000       0.00000000       0.00000000       0.00000000       0.00000000       0.13499834
Cr       0.00000000       0.00000000       4.29515152       0.00000000       0.00000000      -0.13499834
2
Properties=species:S:1:pos:R:3:forces:R:3 energy=-12.677891067051243 pbc="F F F"
Cr       0.00000000       0.00000000       0.00000000       0.00000000       0.00000000       0.12509552
Cr       0.00000000       0.00000000       4.35393939       0.00000000       0.00000000      -0.12509552
2
Properties=species:S:1:pos:R:3:forces:R:3 energy=-12.670813277559972 pbc="F F F"
Cr       0.00000000       0.00000000       0.00000000       0.00000000       0.00000000       0.11584973
Cr       0.00000000       0.00000000       4.41272727       0.00000000       0.00000000      -0.11584973
2
Properties=species:S:1:pos:R:3:forces:R:3 energy=-12.664259772925385 pbc="F F F"
Cr       0.00000000       0.00000000       0.00000000       0.00000000       0.00000000       0.10719006
Cr       0.00000000       0.00000000       4.47151515       0.00000000       0.00000000      -0.10719006
2
Properties=species:S:1:pos:R:3:forces:R:3 energy=-12.658200125837702 pbc="F F F"
Cr       0.00000000       0.00000000       0.00000000       0.00000000       0.00000000       0.09904364
Cr       0.00000000       0.00000000       4.53030303       0.00000000       0.00000000      -0.09904364
2
Properties=species:S:1:pos:R:3:forces:R:3 energy=-12.652605208113924 pbc="F F F"
Cr       0.00000000       0.00000000       0.00000000       0.00000000       0.00000000       0.09135927
Cr       0.00000000       0.00000000       4.58909091       0.00000000       0.00000000      -0.09135927
2
Properties=species:S:1:pos:R:3:forces:R:3 energy=-12.647449963021757 pbc="F F F"
Cr       0.00000000       0.00000000       0.00000000       0.00000000       0.00000000       0.08411889
Cr       0.00000000       0.00000000       4.64787879       0.00000000       0.00000000      -0.08411889
2
Properties=species:S:1:pos:R:3:forces:R:3 energy=-12.642706637692562 pbc="F F F"
Cr       0.00000000       0.00000000       0.00000000       0.00000000       0.00000000       0.07733418
Cr       0.00000000       0.00000000       4.70666667       0.00000000       0.00000000      -0.07733418
2
Properties=species:S:1:pos:R:3:forces:R:3 energy=-12.638346570092743 pbc="F F F"
Cr       0.00000000       0.00000000       0.00000000       0.00000000       0.00000000       0.07104351
Cr       0.00000000       0.00000000       4.76545455       0.00000000       0.00000000      -0.07104351
2
Properties=species:S:1:pos:R:3:forces:R:3 energy=-12.63434209320456 pbc="F F F"
Cr       0.00000000       0.00000000       0.00000000       0.00000000       0.00000000       0.06530079
Cr       0.00000000       0.00000000       4.82424242       0.00000000       0.00000000      -0.06530079
2
Properties=species:S:1:pos:R:3:forces:R:3 energy=-12.630656979276031 pbc="F F F"
Cr       0.00000000       0.00000000       0.00000000       0.00000000       0.00000000       0.06016636
Cr       0.00000000       0.00000000       4.88303030       0.00000000       0.00000000      -0.06016636
2
Properties=species:S:1:pos:R:3:forces:R:3 energy=-12.627255925878933 pbc="F F F"
Cr       0.00000000       0.00000000       0.00000000       0.00000000       0.00000000       0.05569177
Cr       0.00000000       0.00000000       4.94181818       0.00000000       0.00000000      -0.05569177
2
Properties=species:S:1:pos:R:3:forces:R:3 energy=-12.624095120535964 pbc="F F F"
Cr       0.00000000       0.00000000       0.00000000       0.00000000       0.00000000       0.05190099
Cr       0.00000000       0.00000000       5.00060606       0.00000000       0.00000000      -0.05190099
2
Properties=species:S:1:pos:R:3:forces:R:3 energy=-12.621139470214867 pbc="F F F"
Cr       0.00000000       0.00000000       0.00000000       0.00000000       0.00000000       0.04876909
Cr       0.00000000       0.00000000       5.05939394       0.00000000       0.00000000      -0.04876909
2
Properties=species:S:1:pos:R:3:forces:R:3 energy=-12.618350187723214 pbc="F F F"
Cr       0.00000000       0.00000000       0.00000000       0.00000000       0.00000000       0.04620904
Cr       0.00000000       0.00000000       5.11818182       0.00000000       0.00000000      -0.04620904
2
Properties=species:S:1:pos:R:3:forces:R:3 energy=-12.615697316187399 pbc="F F F"
Cr       0.00000000       0.00000000       0.00000000       0.00000000       0.00000000       0.04406720
Cr       0.00000000       0.00000000       5.17696970       0.00000000       0.00000000      -0.04406720
2
Properties=species:S:1:pos:R:3:forces:R:3 energy=-12.613165523958449 pbc="F F F"
Cr       0.00000000       0.00000000       0.00000000       0.00000000       0.00000000       0.04214243
Cr       0.00000000       0.00000000       5.23575758       0.00000000       0.00000000      -0.04214243
2
Properties=species:S:1:pos:R:3:forces:R:3 energy=-12.610743706061387 pbc="F F F"
Cr       0.00000000       0.00000000       0.00000000       0.00000000       0.00000000       0.04021461
Cr       0.00000000       0.00000000       5.29454545       0.00000000       0.00000000      -0.04021461
2
Properties=species:S:1:pos:R:3:forces:R:3 energy=-12.6084393637538 pbc="F F F"
Cr       0.00000000       0.00000000       0.00000000       0.00000000       0.00000000       0.03808809
Cr       0.00000000       0.00000000       5.35333333       0.00000000       0.00000000      -0.03808809
2
Properties=species:S:1:pos:R:3:forces:R:3 energy=-12.606271971571214 pbc="F F F"
Cr       0.00000000       0.00000000       0.00000000       0.00000000       0.00000000       0.03562977
Cr       0.00000000       0.00000000       5.41212121       0.00000000       0.00000000      -0.03562977
2
Properties=species:S:1:pos:R:3:forces:R:3 energy=-12.604258795757422 pbc="F F F"
Cr       0.00000000       0.00000000       0.00000000       0.00000000       0.00000000       0.03279697
Cr       0.00000000       0.00000000       5.47090909       0.00000000       0.00000000      -0.03279697
2
Properties=species:S:1:pos:R:3:forces:R:3 energy=-12.602421607998565 pbc="F F F"
Cr       0.00000000       0.00000000       0.00000000       0.00000000       0.00000000       0.02964468
Cr       0.00000000       0.00000000       5.52969697       0.00000000       0.00000000      -0.02964468
2
Properties=species:S:1:pos:R:3:forces:R:3 energy=-12.600776247274704 pbc="F F F"
Cr       0.00000000       0.00000000       0.00000000       0.00000000       0.00000000       0.02631355
Cr       0.00000000       0.00000000       5.58848485       0.00000000       0.00000000      -0.02631355
2
Properties=species:S:1:pos:R:3:forces:R:3 energy=-12.59932795602638 pbc="F F F"
Cr       0.00000000       0.00000000       0.00000000       0.00000000       0.00000000       0.02300276
Cr       0.00000000       0.00000000       5.64727273       0.00000000       0.00000000      -0.02300276
2
Properties=species:S:1:pos:R:3:forces:R:3 energy=-12.598067541698686 pbc="F F F"
Cr       0.00000000       0.00000000       0.00000000       0.00000000       0.00000000       0.01992719
Cr       0.00000000       0.00000000       5.70606061       0.00000000       0.00000000      -0.01992719
2
Properties=species:S:1:pos:R:3:forces:R:3 energy=-12.596977170063152 pbc="F F F"
Cr       0.00000000       0.00000000       0.00000000       0.00000000       0.00000000       0.01727139
Cr       0.00000000       0.00000000       5.76484848       0.00000000       0.00000000      -0.01727139
2
Properties=species:S:1:pos:R:3:forces:R:3 energy=-12.596025683961278 pbc="F F F"
Cr       0.00000000       0.00000000       0.00000000       0.00000000       0.00000000       0.01515753
Cr       0.00000000       0.00000000       5.82363636       0.00000000       0.00000000      -0.01515753
2
Properties=species:S:1:pos:R:3:forces:R:3 energy=-12.595183790817599 pbc="F F F"
Cr       0.00000000       0.00000000       0.00000000       0.00000000       0.00000000       0.01360676
Cr       0.00000000       0.00000000       5.88242424       0.00000000       0.00000000      -0.01360676
2
Properties=species:S:1:pos:R:3:forces:R:3 energy=-12.594416529071772 pbc="F F F"
Cr       0.00000000       0.00000000       0.00000000       0.00000000       0.00000000       0.01253230
Cr       0.00000000       0.00000000       5.94121212       0.00000000       0.00000000      -0.01253230
2
Properties=species:S:1:pos:R:3:forces:R:3 energy=-12.593703296131178 pbc="F F F"
Cr       0.00000000       0.00000000       0.00000000       0.00000000       0.00000000       0.01175158
Cr       0.00000000       0.00000000       6.00000000       0.00000000       0.00000000      -0.01175158
