2
Properties=species:S:1:pos:R:3:forces:R:3 energy=22781081.986876834 pbc="F F F"
Cs       0.00000000       0.00000000       0.00000000       0.00000000       0.00000000 -307762720.00000000
Cs       0.00000000       0.00000000       0.18000000       0.00000000       0.00000000 307762720.00000000
2
Properties=species:S:1:pos:R:3:forces:R:3 energy=8690387.986876834 pbc="F F F"
Cs       0.00000000       0.00000000       0.00000000       0.00000000       0.00000000 -169502080.00000000
Cs       0.00000000       0.00000000       0.23878788       0.00000000       0.00000000 169502080.00000000
2
Properties=species:S:1:pos:R:3:forces:R:3 energy=2388229.486876834 pbc="F F F"
Cs       0.00000000       0.00000000       0.00000000       0.00000000       0.00000000 -52956308.00000000
Cs       0.00000000       0.00000000       0.29757576       0.00000000       0.00000000 52956308.00000000
2
Properties=species:S:1:pos:R:3:forces:R:3 energy=556551.3618768343 pbc="F F F"
Cs       0.00000000       0.00000000       0.00000000       0.00000000       0.00000000 -14998110.00000000
Cs       0.00000000       0.00000000       0.35636364       0.00000000       0.00000000 14998110.00000000
2
Properties=species:S:1:pos:R:3:forces:R:3 energy=115044.36187683426 pbc="F F F"
Cs       0.00000000       0.00000000       0.00000000       0.00000000       0.00000000 -3317767.25000000
Cs       0.00000000       0.00000000       0.41515152       0.00000000       0.00000000 3317767.25000000
2
Properties=species:S:1:pos:R:3:forces:R:3 energy=21986.17828308425 pbc="F F F"
Cs       0.00000000       0.00000000       0.00000000       0.00000000       0.00000000 -597818.18750000
Cs       0.00000000       0.00000000       0.47393939       0.00000000       0.00000000  597818.18750000
2
Properties=species:S:1:pos:R:3:forces:R:3 energy=6255.023009647542 pbc="F F F"
Cs       0.00000000       0.00000000       0.00000000       0.00000000       0.00000000 -127303.18750000
Cs       0.00000000       0.00000000       0.53272727       0.00000000       0.00000000  127303.18750000
2
Properties=species:S:1:pos:R:3:forces:R:3 energy=3147.732482304584 pbc="F F F"
Cs       0.00000000       0.00000000       0.00000000       0.00000000       0.00000000  -69299.59375000
Cs       0.00000000       0.00000000       0.59151515       0.00000000       0.00000000   69299.59375000
2
Properties=species:S:1:pos:R:3:forces:R:3 energy=830.3741449038241 pbc="F F F"
Cs       0.00000000       0.00000000       0.00000000       0.00000000       0.00000000  -19092.87109375
Cs       0.00000000       0.00000000       0.65030303       0.00000000       0.00000000   19092.87109375
2
Properties=species:S:1:pos:R:3:forces:R:3 energy=333.6006768894138 pbc="F F F"
Cs       0.00000000       0.00000000       0.00000000       0.00000000       0.00000000   -4003.23730469
Cs       0.00000000       0.00000000       0.70909091       0.00000000       0.00000000    4003.23730469
2
Properties=species:S:1:pos:R:3:forces:R:3 energy=173.53152406134237 pbc="F F F"
Cs       0.00000000       0.00000000       0.00000000       0.00000000       0.00000000   -1484.46386719
Cs       0.00000000       0.00000000       0.76787879       0.00000000       0.00000000    1484.46386719
2
Properties=species:S:1:pos:R:3:forces:R:3 energy=122.86273897325513 pbc="F F F"
Cs       0.00000000       0.00000000       0.00000000       0.00000000       0.00000000    -482.05059814
Cs       0.00000000       0.00000000       0.82666667       0.00000000       0.00000000     482.05059814
2
Properties=species:S:1:pos:R:3:forces:R:3 energy=97.45698489181922 pbc="F F F"
Cs       0.00000000       0.00000000       0.00000000       0.00000000       0.00000000    -266.56472778
Cs       0.00000000       0.00000000       0.88545455       0.00000000       0.00000000     266.56472778
2
Properties=species:S:1:pos:R:3:forces:R:3 energy=83.47488346406081 pbc="F F F"
Cs       0.00000000       0.00000000       0.00000000       0.00000000       0.00000000    -296.62133789
Cs       0.00000000       0.00000000       0.94424242       0.00000000       0.00000000     296.62133789
2
Properties=species:S:1:pos:R:3:forces:R:3 energy=68.24806158206978 pbc="F F F"
Cs       0.00000000       0.00000000       0.00000000       0.00000000       0.00000000    -173.64216614
Cs       0.00000000       0.00000000       1.00303030       0.00000000       0.00000000     173.64216614
2
Properties=species:S:1:pos:R:3:forces:R:3 energy=61.26090187603258 pbc="F F F"
Cs       0.00000000       0.00000000       0.00000000       0.00000000       0.00000000    -102.78938293
Cs       0.00000000       0.00000000       1.06181818       0.00000000       0.00000000     102.78938293
2
Properties=species:S:1:pos:R:3:forces:R:3 energy=56.85218761248525 pbc="F F F"
Cs       0.00000000       0.00000000       0.00000000       0.00000000       0.00000000     -60.91847992
Cs       0.00000000       0.00000000       1.12060606       0.00000000       0.00000000      60.91847992
2
Properties=species:S:1:pos:R:3:forces:R:3 energy=53.30797531077443 pbc="F F F"
Cs       0.00000000       0.00000000       0.00000000       0.00000000       0.00000000     -57.39530182
Cs       0.00000000       0.00000000       1.17939394       0.00000000       0.00000000      57.39530182
2
Properties=species:S:1:pos:R:3:forces:R:3 energy=52.49902303150053 pbc="F F F"
Cs       0.00000000       0.00000000       0.00000000       0.00000000       0.00000000      -0.32042715
Cs       0.00000000       0.00000000       1.23818182       0.00000000       0.00000000       0.32042715
2
Properties=species:S:1:pos:R:3:forces:R:3 energy=52.095634119390105 pbc="F F F"
Cs       0.00000000       0.00000000       0.00000000       0.00000000       0.00000000     -22.18159103
Cs       0.00000000       0.00000000       1.29696970       0.00000000       0.00000000      22.18159103
2
Properties=species:S:1:pos:R:3:forces:R:3 energy=50.018813829802234 pbc="F F F"
Cs       0.00000000       0.00000000       0.00000000       0.00000000       0.00000000     -46.60760117
Cs       0.00000000       0.00000000       1.35575758       0.00000000       0.00000000      46.60760117
2
Properties=species:S:1:pos:R:3:forces:R:3 energy=46.70182785114795 pbc="F F F"
Cs       0.00000000       0.00000000       0.00000000       0.00000000       0.00000000     -64.11644745
Cs       0.00000000       0.00000000       1.41454545       0.00000000       0.00000000      64.11644745
2
Properties=species:S:1:pos:R:3:forces:R:3 energy=43.000442482189825 pbc="F F F"
Cs       0.00000000       0.00000000       0.00000000       0.00000000       0.00000000     -55.53944397
Cs       0.00000000       0.00000000       1.47333333       0.00000000       0.00000000      55.53944397
2
Properties=species:S:1:pos:R:3:forces:R:3 energy=40.23592390437187 pbc="F F F"
Cs       0.00000000       0.00000000       0.00000000       0.00000000       0.00000000     -41.98688889
Cs       0.00000000       0.00000000       1.53212121       0.00000000       0.00000000      41.98688889
2
Properties=species:S:1:pos:R:3:forces:R:3 energy=37.72844729255231 pbc="F F F"
Cs       0.00000000       0.00000000       0.00000000       0.00000000       0.00000000     -46.32709122
Cs       0.00000000       0.00000000       1.59090909       0.00000000       0.00000000      46.32709122
2
Properties=species:S:1:pos:R:3:forces:R:3 energy=34.751907918322566 pbc="F F F"
Cs       0.00000000       0.00000000       0.00000000       0.00000000       0.00000000     -54.44660187
Cs       0.00000000       0.00000000       1.64969697       0.00000000       0.00000000      54.44660187
2
Properties=species:S:1:pos:R:3:forces:R:3 energy=31.38104142791386 pbc="F F F"
Cs       0.00000000       0.00000000       0.00000000       0.00000000       0.00000000     -58.82406998
Cs       0.00000000       0.00000000       1.70848485       0.00000000       0.00000000      58.82406998
2
Properties=species:S:1:pos:R:3:forces:R:3 energy=28.060420279560137 pbc="F F F"
Cs       0.00000000       0.00000000       0.00000000       0.00000000       0.00000000     -53.75897598
Cs       0.00000000       0.00000000       1.76727273       0.00000000       0.00000000      53.75897598
2
Properties=species:S:1:pos:R:3:forces:R:3 energy=24.9136807284924 pbc="F F F"
Cs       0.00000000       0.00000000       0.00000000       0.00000000       0.00000000     -53.96325684
Cs       0.00000000       0.00000000       1.82606061       0.00000000       0.00000000      53.96325684
2
Properties=species:S:1:pos:R:3:forces:R:3 energy=21.853328886145825 pbc="F F F"
Cs       0.00000000       0.00000000       0.00000000       0.00000000       0.00000000     -49.70122910
Cs       0.00000000       0.00000000       1.88484848       0.00000000       0.00000000      49.70122910
2
Properties=species:S:1:pos:R:3:forces:R:3 energy=19.094601430593972 pbc="F F F"
Cs       0.00000000       0.00000000       0.00000000       0.00000000       0.00000000     -44.13410568
Cs       0.00000000       0.00000000       1.94363636       0.00000000       0.00000000      44.13410568
2
Properties=species:S:1:pos:R:3:forces:R:3 energy=16.662473194338354 pbc="F F F"
Cs       0.00000000       0.00000000       0.00000000       0.00000000       0.00000000     -38.73350143
Cs       0.00000000       0.00000000       2.00242424       0.00000000       0.00000000      38.73350143
2
Properties=species:S:1:pos:R:3:forces:R:3 energy=14.505539241799069 pbc="F F F"
Cs       0.00000000       0.00000000       0.00000000       0.00000000       0.00000000     -34.93992996
Cs       0.00000000       0.00000000       2.06121212       0.00000000       0.00000000      34.93992996
2
Properties=species:S:1:pos:R:3:forces:R:3 energy=12.547902368850524 pbc="F F F"
Cs       0.00000000       0.00000000       0.00000000       0.00000000       0.00000000     -31.61066818
Cs       0.00000000       0.00000000       2.12000000       0.00000000       0.00000000      31.61066818
2
Properties=species:S:1:pos:R:3:forces:R:3 energy=10.785477053728169 pbc="F F F"
Cs       0.00000000       0.00000000       0.00000000       0.00000000       0.00000000     -28.41599464
Cs       0.00000000       0.00000000       2.17878788       0.00000000       0.00000000      28.41599464
2
Properties=species:S:1:pos:R:3:forces:R:3 energy=9.202774692450097 pbc="F F F"
Cs       0.00000000       0.00000000       0.00000000       0.00000000       0.00000000     -25.42099190
Cs       0.00000000       0.00000000       2.23757576       0.00000000       0.00000000      25.42099190
2
Properties=species:S:1:pos:R:3:forces:R:3 energy=7.799766693793745 pbc="F F F"
Cs       0.00000000       0.00000000       0.00000000       0.00000000       0.00000000     -22.29510498
Cs       0.00000000       0.00000000       2.29636364       0.00000000       0.00000000      22.29510498
2
Properties=species:S:1:pos:R:3:forces:R:3 energy=6.57941233292159 pbc="F F F"
Cs       0.00000000       0.00000000       0.00000000       0.00000000       0.00000000     -19.26912498
Cs       0.00000000       0.00000000       2.35515152       0.00000000       0.00000000      19.26912498
2
Properties=species:S:1:pos:R:3:forces:R:3 energy=5.527195758406188 pbc="F F F"
Cs       0.00000000       0.00000000       0.00000000       0.00000000       0.00000000     -16.58121109
Cs       0.00000000       0.00000000       2.41393939       0.00000000       0.00000000      16.58121109
2
Properties=species:S:1:pos:R:3:forces:R:3 energy=4.624510814428766 pbc="F F F"
Cs       0.00000000       0.00000000       0.00000000       0.00000000       0.00000000     -14.18269634
Cs       0.00000000       0.00000000       2.47272727       0.00000000       0.00000000      14.18269634
2
Properties=species:S:1:pos:R:3:forces:R:3 energy=3.8510719215315325 pbc="F F F"
Cs       0.00000000       0.00000000       0.00000000       0.00000000       0.00000000     -12.21337128
Cs       0.00000000       0.00000000       2.53151515       0.00000000       0.00000000      12.21337128
2
Properties=species:S:1:pos:R:3:forces:R:3 energy=3.179424743091562 pbc="F F F"
Cs       0.00000000       0.00000000       0.00000000       0.00000000       0.00000000     -10.70418739
Cs       0.00000000       0.00000000       2.59030303       0.00000000       0.00000000      10.70418739
2
Properties=species:S:1:pos:R:3:forces:R:3 energy=2.585704564693326 pbc="F F F"
Cs       0.00000000       0.00000000       0.00000000       0.00000000       0.00000000      -9.54178905
Cs       0.00000000       0.00000000       2.64909091       0.00000000       0.00000000       9.54178905
2
Properties=species:S:1:pos:R:3:forces:R:3 energy=2.0534653139320866 pbc="F F F"
Cs       0.00000000       0.00000000       0.00000000       0.00000000       0.00000000      -8.58719730
Cs       0.00000000       0.00000000       2.70787879       0.00000000       0.00000000       8.58719730
2
Properties=species:S:1:pos:R:3:forces:R:3 energy=1.5746508713695122 pbc="F F F"
Cs       0.00000000       0.00000000       0.00000000       0.00000000       0.00000000      -7.70795965
Cs       0.00000000       0.00000000       2.76666667       0.00000000       0.00000000       7.70795965
2
Properties=species:S:1:pos:R:3:forces:R:3 energy=1.1467736234846782 pbc="F F F"
Cs       0.00000000       0.00000000       0.00000000       0.00000000       0.00000000      -6.85219479
Cs       0.00000000       0.00000000       2.82545455       0.00000000       0.00000000       6.85219479
2
Properties=species:S:1:pos:R:3:forces:R:3 energy=0.7684412548768748 pbc="F F F"
Cs       0.00000000       0.00000000       0.00000000       0.00000000       0.00000000      -6.02516413
Cs       0.00000000       0.00000000       2.88424242       0.00000000       0.00000000       6.02516413
2
Properties=species:S:1:pos:R:3:forces:R:3 energy=0.4374279490882749 pbc="F F F"
Cs       0.00000000       0.00000000       0.00000000       0.00000000       0.00000000      -5.24547625
Cs       0.00000000       0.00000000       2.94303030       0.00000000       0.00000000       5.24547625
2
Properties=species:S:1:pos:R:3:forces:R:3 energy=0.15047600929896704 pbc="F F F"
Cs       0.00000000       0.00000000       0.00000000       0.00000000       0.00000000      -4.52813292
Cs       0.00000000       0.00000000       3.00181818       0.00000000       0.00000000       4.52813292
2
Properties=species:S:1:pos:R:3:forces:R:3 energy=-0.0963441153634024 pbc="F F F"
Cs       0.00000000       0.00000000       0.00000000       0.00000000       0.00000000      -3.88061881
Cs       0.00000000       0.00000000       3.06060606       0.00000000       0.00000000       3.88061881
2
Properties=species:S:1:pos:R:3:forces:R:3 energy=-0.3071679662557084 pbc="F F F"
Cs       0.00000000       0.00000000       0.00000000       0.00000000       0.00000000      -3.30343628
Cs       0.00000000       0.00000000       3.11939394       0.00000000       0.00000000       3.30343628
2
Properties=species:S:1:pos:R:3:forces:R:3 energy=-0.486132511286523 pbc="F F F"
Cs       0.00000000       0.00000000       0.00000000       0.00000000       0.00000000      -2.79704380
Cs       0.00000000       0.00000000       3.17818182       0.00000000       0.00000000       2.79704380
2
Properties=species:S:1:pos:R:3:forces:R:3 energy=-0.6374610211383197 pbc="F F F"
Cs       0.00000000       0.00000000       0.00000000       0.00000000       0.00000000      -2.36339426
Cs       0.00000000       0.00000000       3.23696970       0.00000000       0.00000000       2.36339426
2
Properties=species:S:1:pos:R:3:forces:R:3 energy=-0.7654206339282156 pbc="F F F"
Cs       0.00000000       0.00000000       0.00000000       0.00000000       0.00000000      -2.00146985
Cs       0.00000000       0.00000000       3.29575758       0.00000000       0.00000000       2.00146985
2
Properties=species:S:1:pos:R:3:forces:R:3 energy=-0.8740715372788456 pbc="F F F"
Cs       0.00000000       0.00000000       0.00000000       0.00000000       0.00000000      -1.70498550
Cs       0.00000000       0.00000000       3.35454545       0.00000000       0.00000000       1.70498550
2
Properties=species:S:1:pos:R:3:forces:R:3 energy=-0.9669465321641386 pbc="F F F"
Cs       0.00000000       0.00000000       0.00000000       0.00000000       0.00000000      -1.46257293
Cs       0.00000000       0.00000000       3.41333333       0.00000000       0.00000000       1.46257293
2
Properties=species:S:1:pos:R:3:forces:R:3 energy=-1.0468355088494543 pbc="F F F"
Cs       0.00000000       0.00000000       0.00000000       0.00000000       0.00000000      -1.26112831
Cs       0.00000000       0.00000000       3.47212121       0.00000000       0.00000000       1.26112831
2
Properties=species:S:1:pos:R:3:forces:R:3 energy=-1.1158159644697077 pbc="F F F"
Cs       0.00000000       0.00000000       0.00000000       0.00000000       0.00000000      -1.09003782
Cs       0.00000000       0.00000000       3.53090909       0.00000000       0.00000000       1.09003782
2
Properties=species:S:1:pos:R:3:forces:R:3 energy=-1.175462808211157 pbc="F F F"
Cs       0.00000000       0.00000000       0.00000000       0.00000000       0.00000000      -0.94284439
Cs       0.00000000       0.00000000       3.58969697       0.00000000       0.00000000       0.94284439
2
Properties=species:S:1:pos:R:3:forces:R:3 energy=-1.2270777318638313 pbc="F F F"
Cs       0.00000000       0.00000000       0.00000000       0.00000000       0.00000000      -0.81646156
Cs       0.00000000       0.00000000       3.64848485       0.00000000       0.00000000       0.81646156
2
Properties=species:S:1:pos:R:3:forces:R:3 energy=-1.2718422785090933 pbc="F F F"
Cs       0.00000000       0.00000000       0.00000000       0.00000000       0.00000000      -0.70966375
Cs       0.00000000       0.00000000       3.70727273       0.00000000       0.00000000       0.70966375
2
Properties=species:S:1:pos:R:3:forces:R:3 energy=-1.3108874528251795 pbc="F F F"
Cs       0.00000000       0.00000000       0.00000000       0.00000000       0.00000000      -0.62168378
Cs       0.00000000       0.00000000       3.76606061       0.00000000       0.00000000       0.62168378
2
Properties=species:S:1:pos:R:3:forces:R:3 energy=-1.3452822975862486 pbc="F F F"
Cs       0.00000000       0.00000000       0.00000000       0.00000000       0.00000000      -0.55115610
Cs       0.00000000       0.00000000       3.82484848       0.00000000       0.00000000       0.55115610
2
Properties=species:S:1:pos:R:3:forces:R:3 energy=-1.375984297846195 pbc="F F F"
Cs       0.00000000       0.00000000       0.00000000       0.00000000       0.00000000      -0.49568513
Cs       0.00000000       0.00000000       3.88363636       0.00000000       0.00000000       0.49568513
2
Properties=species:S:1:pos:R:3:forces:R:3 energy=-1.4037960140998287 pbc="F F F"
Cs       0.00000000       0.00000000       0.00000000       0.00000000       0.00000000      -0.45213145
Cs       0.00000000       0.00000000       3.94242424       0.00000000       0.00000000       0.45213145
2
Properties=species:S:1:pos:R:3:forces:R:3 energy=-1.429314532792374 pbc="F F F"
Cs       0.00000000       0.00000000       0.00000000       0.00000000       0.00000000      -0.41726750
Cs       0.00000000       0.00000000       4.00121212       0.00000000       0.00000000       0.41726750
2
Properties=species:S:1:pos:R:3:forces:R:3 energy=-1.452971545983334 pbc="F F F"
Cs       0.00000000       0.00000000       0.00000000       0.00000000       0.00000000      -0.38835156
Cs       0.00000000       0.00000000       4.06000000       0.00000000       0.00000000       0.38835156
2
Properties=species:S:1:pos:R:3:forces:R:3 energy=-1.4750524414638866 pbc="F F F"
Cs       0.00000000       0.00000000       0.00000000       0.00000000       0.00000000      -0.36336076
Cs       0.00000000       0.00000000       4.11878788       0.00000000       0.00000000       0.36336076
2
Properties=species:S:1:pos:R:3:forces:R:3 energy=-1.4957449615298197 pbc="F F F"
Cs       0.00000000       0.00000000       0.00000000       0.00000000       0.00000000      -0.34094021
Cs       0.00000000       0.00000000       4.17757576       0.00000000       0.00000000       0.34094021
2
Properties=species:S:1:pos:R:3:forces:R:3 energy=-1.5151716540428224 pbc="F F F"
Cs       0.00000000       0.00000000       0.00000000       0.00000000       0.00000000      -0.32022542
Cs       0.00000000       0.00000000       4.23636364       0.00000000       0.00000000       0.32022542
2
Properties=species:S:1:pos:R:3:forces:R:3 energy=-1.5334175867984137 pbc="F F F"
Cs       0.00000000       0.00000000       0.00000000       0.00000000       0.00000000      -0.30064604
Cs       0.00000000       0.00000000       4.29515152       0.00000000       0.00000000       0.30064604
2
Properties=species:S:1:pos:R:3:forces:R:3 energy=-1.5505334833974276 pbc="F F F"
Cs       0.00000000       0.00000000       0.00000000       0.00000000       0.00000000      -0.28178170
Cs       0.00000000       0.00000000       4.35393939       0.00000000       0.00000000       0.28178170
2
Properties=species:S:1:pos:R:3:forces:R:3 energy=-1.5665539262133543 pbc="F F F"
Cs       0.00000000       0.00000000       0.00000000       0.00000000       0.00000000      -0.26327619
Cs       0.00000000       0.00000000       4.41272727       0.00000000       0.00000000       0.26327619
2
Properties=species:S:1:pos:R:3:forces:R:3 energy=-1.5814900691625646 pbc="F F F"
Cs       0.00000000       0.00000000       0.00000000       0.00000000       0.00000000      -0.24482106
Cs       0.00000000       0.00000000       4.47151515       0.00000000       0.00000000       0.24482106
2
Properties=species:S:1:pos:R:3:forces:R:3 energy=-1.5953348060533996 pbc="F F F"
Cs       0.00000000       0.00000000       0.00000000       0.00000000       0.00000000      -0.22616681
Cs       0.00000000       0.00000000       4.53030303       0.00000000       0.00000000       0.22616681
2
Properties=species:S:1:pos:R:3:forces:R:3 energy=-1.608075121586946 pbc="F F F"
Cs       0.00000000       0.00000000       0.00000000       0.00000000       0.00000000      -0.20714863
Cs       0.00000000       0.00000000       4.58909091       0.00000000       0.00000000       0.20714863
2
Properties=species:S:1:pos:R:3:forces:R:3 energy=-1.6196826591120395 pbc="F F F"
Cs       0.00000000       0.00000000       0.00000000       0.00000000       0.00000000      -0.18770933
Cs       0.00000000       0.00000000       4.64787879       0.00000000       0.00000000       0.18770933
2
Properties=species:S:1:pos:R:3:forces:R:3 energy=-1.630138032904764 pbc="F F F"
Cs       0.00000000       0.00000000       0.00000000       0.00000000       0.00000000      -0.16789755
Cs       0.00000000       0.00000000       4.70666667       0.00000000       0.00000000       0.16789755
2
Properties=species:S:1:pos:R:3:forces:R:3 energy=-1.6394191336588555 pbc="F F F"
Cs       0.00000000       0.00000000       0.00000000       0.00000000       0.00000000      -0.14788127
Cs       0.00000000       0.00000000       4.76545455       0.00000000       0.00000000       0.14788127
2
Properties=species:S:1:pos:R:3:forces:R:3 energy=-1.6475248703574028 pbc="F F F"
Cs       0.00000000       0.00000000       0.00000000       0.00000000       0.00000000      -0.12793694
Cs       0.00000000       0.00000000       4.82424242       0.00000000       0.00000000       0.12793694
2
Properties=species:S:1:pos:R:3:forces:R:3 energy=-1.654470881626507 pbc="F F F"
Cs       0.00000000       0.00000000       0.00000000       0.00000000       0.00000000      -0.10846508
Cs       0.00000000       0.00000000       4.88303030       0.00000000       0.00000000       0.10846508
2
Properties=species:S:1:pos:R:3:forces:R:3 energy=-1.6602997286898875 pbc="F F F"
Cs       0.00000000       0.00000000       0.00000000       0.00000000       0.00000000      -0.08998656
Cs       0.00000000       0.00000000       4.94181818       0.00000000       0.00000000       0.08998656
2
Properties=species:S:1:pos:R:3:forces:R:3 energy=-1.66508437434963 pbc="F F F"
Cs       0.00000000       0.00000000       0.00000000       0.00000000       0.00000000      -0.07317926
Cs       0.00000000       0.00000000       5.00060606       0.00000000       0.00000000       0.07317926
2
Properties=species:S:1:pos:R:3:forces:R:3 energy=-1.6689512032192497 pbc="F F F"
Cs       0.00000000       0.00000000       0.00000000       0.00000000       0.00000000      -0.05887444
Cs       0.00000000       0.00000000       5.05939394       0.00000000       0.00000000       0.05887444
2
Properties=species:S:1:pos:R:3:forces:R:3 energy=-1.6720747852917983 pbc="F F F"
Cs       0.00000000       0.00000000       0.00000000       0.00000000       0.00000000      -0.04809151
Cs       0.00000000       0.00000000       5.11818182       0.00000000       0.00000000       0.04809151
2
Properties=species:S:1:pos:R:3:forces:R:3 energy=-1.6746988395696971 pbc="F F F"
Cs       0.00000000       0.00000000       0.00000000       0.00000000       0.00000000      -0.04204204
Cs       0.00000000       0.00000000       5.17696970       0.00000000       0.00000000       0.04204204
2
Properties=species:S:1:pos:R:3:forces:R:3 energy=-1.6771382702404658 pbc="F F F"
Cs       0.00000000       0.00000000       0.00000000       0.00000000       0.00000000      -0.04211657
Cs       0.00000000       0.00000000       5.23575758       0.00000000       0.00000000       0.04211657
2
Properties=species:S:1:pos:R:3:forces:R:3 energy=-1.6797972935944525 pbc="F F F"
Cs       0.00000000       0.00000000       0.00000000       0.00000000       0.00000000      -0.04971747
Cs       0.00000000       0.00000000       5.29454545       0.00000000       0.00000000       0.04971747
2
Properties=species:S:1:pos:R:3:forces:R:3 energy=-1.6831503910327013 pbc="F F F"
Cs       0.00000000       0.00000000       0.00000000       0.00000000       0.00000000      -0.06575922
Cs       0.00000000       0.00000000       5.35333333       0.00000000       0.00000000       0.06575922
2
Properties=species:S:1:pos:R:3:forces:R:3 energy=-1.687686166172728 pbc="F F F"
Cs       0.00000000       0.00000000       0.00000000       0.00000000       0.00000000      -0.08966288
Cs       0.00000000       0.00000000       5.41212121       0.00000000       0.00000000       0.08966288
2
Properties=species:S:1:pos:R:3:forces:R:3 energy=-1.6937833063419028 pbc="F F F"
Cs       0.00000000       0.00000000       0.00000000       0.00000000       0.00000000      -0.11810796
Cs       0.00000000       0.00000000       5.47090909       0.00000000       0.00000000       0.11810796
2
Properties=species:S:1:pos:R:3:forces:R:3 energy=-1.7015361853293232 pbc="F F F"
Cs       0.00000000       0.00000000       0.00000000       0.00000000       0.00000000      -0.14468242
Cs       0.00000000       0.00000000       5.52969697       0.00000000       0.00000000       0.14468242
2
Properties=species:S:1:pos:R:3:forces:R:3 energy=-1.7106079352207915 pbc="F F F"
Cs       0.00000000       0.00000000       0.00000000       0.00000000       0.00000000      -0.16176644
Cs       0.00000000       0.00000000       5.58848485       0.00000000       0.00000000       0.16176644
2
Properties=species:S:1:pos:R:3:forces:R:3 energy=-1.7202650175139826 pbc="F F F"
Cs       0.00000000       0.00000000       0.00000000       0.00000000       0.00000000      -0.16418864
Cs       0.00000000       0.00000000       5.64727273       0.00000000       0.00000000       0.16418864
2
Properties=species:S:1:pos:R:3:forces:R:3 energy=-1.7296181657493255 pbc="F F F"
Cs       0.00000000       0.00000000       0.00000000       0.00000000       0.00000000      -0.15180922
Cs       0.00000000       0.00000000       5.70606061       0.00000000       0.00000000       0.15180922
2
Properties=species:S:1:pos:R:3:forces:R:3 energy=-1.737906832932217 pbc="F F F"
Cs       0.00000000       0.00000000       0.00000000       0.00000000       0.00000000      -0.12885377
Cs       0.00000000       0.00000000       5.76484848       0.00000000       0.00000000       0.12885377
2
Properties=species:S:1:pos:R:3:forces:R:3 energy=-1.7446742046501094 pbc="F F F"
Cs       0.00000000       0.00000000       0.00000000       0.00000000       0.00000000      -0.10107343
Cs       0.00000000       0.00000000       5.82363636       0.00000000       0.00000000       0.10107343
2
Properties=species:S:1:pos:R:3:forces:R:3 energy=-1.7497917235161704 pbc="F F F"
Cs       0.00000000       0.00000000       0.00000000       0.00000000       0.00000000      -0.07325318
Cs       0.00000000       0.00000000       5.88242424       0.00000000       0.00000000       0.07325318
2
Properties=species:S:1:pos:R:3:forces:R:3 energy=-1.753345891974488 pbc="F F F"
Cs       0.00000000       0.00000000       0.00000000       0.00000000       0.00000000      -0.04826952
Cs       0.00000000       0.00000000       5.94121212       0.00000000       0.00000000       0.04826952
2
Properties=species:S:1:pos:R:3:forces:R:3 energy=-1.7555463616169966 pbc="F F F"
Cs       0.00000000       0.00000000       0.00000000       0.00000000       0.00000000      -0.02732363
Cs       0.00000000       0.00000000       6.00000000       0.00000000       0.00000000       0.02732363
