2
Properties=species:S:1:pos:R:3:forces:R:3 energy=22781083.986876834 pbc="F F F"
Cs       0.00000000       0.00000000       0.00000000       0.00000000       0.00000000 -307762368.00000000
Cs       0.00000000       0.00000000       0.18000000       0.00000000       0.00000000 307762368.00000000
2
Properties=species:S:1:pos:R:3:forces:R:3 energy=8690321.986876834 pbc="F F F"
Cs       0.00000000       0.00000000       0.00000000       0.00000000       0.00000000 -169501248.00000000
Cs       0.00000000       0.00000000       0.23878788       0.00000000       0.00000000 169501248.00000000
2
Properties=species:S:1:pos:R:3:forces:R:3 energy=2388228.736876834 pbc="F F F"
Cs       0.00000000       0.00000000       0.00000000       0.00000000       0.00000000 -52956308.00000000
Cs       0.00000000       0.00000000       0.29757576       0.00000000       0.00000000 52956308.00000000
2
Properties=species:S:1:pos:R:3:forces:R:3 energy=556550.6118768343 pbc="F F F"
Cs       0.00000000       0.00000000       0.00000000       0.00000000       0.00000000 -14998087.00000000
Cs       0.00000000       0.00000000       0.35636364       0.00000000       0.00000000 14998087.00000000
2
Properties=species:S:1:pos:R:3:forces:R:3 energy=115044.03375183426 pbc="F F F"
Cs       0.00000000       0.00000000       0.00000000       0.00000000       0.00000000 -3317759.75000000
Cs       0.00000000       0.00000000       0.41515152       0.00000000       0.00000000 3317759.75000000
2
Properties=species:S:1:pos:R:3:forces:R:3 energy=21986.13726745925 pbc="F F F"
Cs       0.00000000       0.00000000       0.00000000       0.00000000       0.00000000 -597816.93750000
Cs       0.00000000       0.00000000       0.47393939       0.00000000       0.00000000  597816.93750000
2
Properties=species:S:1:pos:R:3:forces:R:3 energy=6255.019591678792 pbc="F F F"
Cs       0.00000000       0.00000000       0.00000000       0.00000000       0.00000000 -127303.21875000
Cs       0.00000000       0.00000000       0.53272727       0.00000000       0.00000000  127303.21875000
2
Properties=species:S:1:pos:R:3:forces:R:3 energy=3147.717833867084 pbc="F F F"
Cs       0.00000000       0.00000000       0.00000000       0.00000000       0.00000000  -69299.25000000
Cs       0.00000000       0.00000000       0.59151515       0.00000000       0.00000000   69299.25000000
2
Properties=species:S:1:pos:R:3:forces:R:3 energy=830.3732904116366 pbc="F F F"
Cs       0.00000000       0.00000000       0.00000000       0.00000000       0.00000000  -19092.84765625
Cs       0.00000000       0.00000000       0.65030303       0.00000000       0.00000000   19092.84765625
2
Properties=species:S:1:pos:R:3:forces:R:3 energy=333.6006463718357 pbc="F F F"
Cs       0.00000000       0.00000000       0.00000000       0.00000000       0.00000000   -4003.23925781
Cs       0.00000000       0.00000000       0.70909091       0.00000000       0.00000000    4003.23925781
2
Properties=species:S:1:pos:R:3:forces:R:3 energy=173.53144776739705 pbc="F F F"
Cs       0.00000000       0.00000000       0.00000000       0.00000000       0.00000000   -1484.46337891
Cs       0.00000000       0.00000000       0.76787879       0.00000000       0.00000000    1484.46337891
2
Properties=species:S:1:pos:R:3:forces:R:3 energy=122.86266267930982 pbc="F F F"
Cs       0.00000000       0.00000000       0.00000000       0.00000000       0.00000000    -482.05065918
Cs       0.00000000       0.00000000       0.82666667       0.00000000       0.00000000     482.05065918
2
Properties=species:S:1:pos:R:3:forces:R:3 energy=97.45688570969031 pbc="F F F"
Cs       0.00000000       0.00000000       0.00000000       0.00000000       0.00000000    -266.56405640
Cs       0.00000000       0.00000000       0.88545455       0.00000000       0.00000000     266.56405640
2
Properties=species:S:1:pos:R:3:forces:R:3 energy=83.47486057587722 pbc="F F F"
Cs       0.00000000       0.00000000       0.00000000       0.00000000       0.00000000    -296.62127686
Cs       0.00000000       0.00000000       0.94424242       0.00000000       0.00000000     296.62127686
2
Properties=species:S:1:pos:R:3:forces:R:3 energy=68.24803869388619 pbc="F F F"
Cs       0.00000000       0.00000000       0.00000000       0.00000000       0.00000000    -173.64210510
Cs       0.00000000       0.00000000       1.00303030       0.00000000       0.00000000     173.64210510
2
Properties=species:S:1:pos:R:3:forces:R:3 energy=61.26090187603258 pbc="F F F"
Cs       0.00000000       0.00000000       0.00000000       0.00000000       0.00000000    -102.78932190
Cs       0.00000000       0.00000000       1.06181818       0.00000000       0.00000000     102.78932190
2
Properties=species:S:1:pos:R:3:forces:R:3 energy=56.85222575945791 pbc="F F F"
Cs       0.00000000       0.00000000       0.00000000       0.00000000       0.00000000     -60.91855621
Cs       0.00000000       0.00000000       1.12060606       0.00000000       0.00000000      60.91855621
2
Properties=species:S:1:pos:R:3:forces:R:3 energy=53.30792953440724 pbc="F F F"
Cs       0.00000000       0.00000000       0.00000000       0.00000000       0.00000000     -57.39537048
Cs       0.00000000       0.00000000       1.17939394       0.00000000       0.00000000      57.39537048
2
Properties=species:S:1:pos:R:3:forces:R:3 energy=52.49905354907865 pbc="F F F"
Cs       0.00000000       0.00000000       0.00000000       0.00000000       0.00000000      -0.32044455
Cs       0.00000000       0.00000000       1.23818182       0.00000000       0.00000000       0.32044455
2
Properties=species:S:1:pos:R:3:forces:R:3 energy=52.095634119390105 pbc="F F F"
Cs       0.00000000       0.00000000       0.00000000       0.00000000       0.00000000     -22.18148422
Cs       0.00000000       0.00000000       1.29696970       0.00000000       0.00000000      22.18148422
2
Properties=species:S:1:pos:R:3:forces:R:3 energy=50.01879094161864 pbc="F F F"
Cs       0.00000000       0.00000000       0.00000000       0.00000000       0.00000000     -46.60753250
Cs       0.00000000       0.00000000       1.35575758       0.00000000       0.00000000      46.60753250
2
Properties=species:S:1:pos:R:3:forces:R:3 energy=46.701812592358884 pbc="F F F"
Cs       0.00000000       0.00000000       0.00000000       0.00000000       0.00000000     -64.11634064
Cs       0.00000000       0.00000000       1.41454545       0.00000000       0.00000000      64.11634064
2
Properties=species:S:1:pos:R:3:forces:R:3 energy=43.00042722340076 pbc="F F F"
Cs       0.00000000       0.00000000       0.00000000       0.00000000       0.00000000     -55.53939438
Cs       0.00000000       0.00000000       1.47333333       0.00000000       0.00000000      55.53939438
2
Properties=species:S:1:pos:R:3:forces:R:3 energy=40.23591627497734 pbc="F F F"
Cs       0.00000000       0.00000000       0.00000000       0.00000000       0.00000000     -41.98685074
Cs       0.00000000       0.00000000       1.53212121       0.00000000       0.00000000      41.98685074
2
Properties=species:S:1:pos:R:3:forces:R:3 energy=37.72845492194684 pbc="F F F"
Cs       0.00000000       0.00000000       0.00000000       0.00000000       0.00000000     -46.32706833
Cs       0.00000000       0.00000000       1.59090909       0.00000000       0.00000000      46.32706833
2
Properties=species:S:1:pos:R:3:forces:R:3 energy=34.7519155477171 pbc="F F F"
Cs       0.00000000       0.00000000       0.00000000       0.00000000       0.00000000     -54.44655228
Cs       0.00000000       0.00000000       1.64969697       0.00000000       0.00000000      54.44655228
2
Properties=species:S:1:pos:R:3:forces:R:3 energy=31.381029983822064 pbc="F F F"
Cs       0.00000000       0.00000000       0.00000000       0.00000000       0.00000000     -58.82400513
Cs       0.00000000       0.00000000       1.70848485       0.00000000       0.00000000      58.82400513
2
Properties=species:S:1:pos:R:3:forces:R:3 energy=28.060420279560137 pbc="F F F"
Cs       0.00000000       0.00000000       0.00000000       0.00000000       0.00000000     -53.75898361
Cs       0.00000000       0.00000000       1.76727273       0.00000000       0.00000000      53.75898361
2
Properties=species:S:1:pos:R:3:forces:R:3 energy=24.913690265235562 pbc="F F F"
Cs       0.00000000       0.00000000       0.00000000       0.00000000       0.00000000     -53.96328735
Cs       0.00000000       0.00000000       1.82606061       0.00000000       0.00000000      53.96328735
2
Properties=species:S:1:pos:R:3:forces:R:3 energy=21.85333270084309 pbc="F F F"
Cs       0.00000000       0.00000000       0.00000000       0.00000000       0.00000000     -49.70125580
Cs       0.00000000       0.00000000       1.88484848       0.00000000       0.00000000      49.70125580
2
Properties=species:S:1:pos:R:3:forces:R:3 energy=19.094605245291238 pbc="F F F"
Cs       0.00000000       0.00000000       0.00000000       0.00000000       0.00000000     -44.13414383
Cs       0.00000000       0.00000000       1.94363636       0.00000000       0.00000000      44.13414383
2
Properties=species:S:1:pos:R:3:forces:R:3 energy=16.66247128698972 pbc="F F F"
Cs       0.00000000       0.00000000       0.00000000       0.00000000       0.00000000     -38.73349762
Cs       0.00000000       0.00000000       2.00242424       0.00000000       0.00000000      38.73349762
2
Properties=species:S:1:pos:R:3:forces:R:3 energy=14.505543056496334 pbc="F F F"
Cs       0.00000000       0.00000000       0.00000000       0.00000000       0.00000000     -34.93994904
Cs       0.00000000       0.00000000       2.06121212       0.00000000       0.00000000      34.93994904
2
Properties=species:S:1:pos:R:3:forces:R:3 energy=12.547904276199157 pbc="F F F"
Cs       0.00000000       0.00000000       0.00000000       0.00000000       0.00000000     -31.61066628
Cs       0.00000000       0.00000000       2.12000000       0.00000000       0.00000000      31.61066628
2
Properties=species:S:1:pos:R:3:forces:R:3 energy=10.785477053728169 pbc="F F F"
Cs       0.00000000       0.00000000       0.00000000       0.00000000       0.00000000     -28.41599464
Cs       0.00000000       0.00000000       2.17878788       0.00000000       0.00000000      28.41599464
2
Properties=species:S:1:pos:R:3:forces:R:3 energy=9.202774692450097 pbc="F F F"
Cs       0.00000000       0.00000000       0.00000000       0.00000000       0.00000000     -25.42099953
Cs       0.00000000       0.00000000       2.23757576       0.00000000       0.00000000      25.42099953
2
Properties=species:S:1:pos:R:3:forces:R:3 energy=7.799769554816694 pbc="F F F"
Cs       0.00000000       0.00000000       0.00000000       0.00000000       0.00000000     -22.29510498
Cs       0.00000000       0.00000000       2.29636364       0.00000000       0.00000000      22.29510498
2
Properties=species:S:1:pos:R:3:forces:R:3 energy=6.579411379247274 pbc="F F F"
Cs       0.00000000       0.00000000       0.00000000       0.00000000       0.00000000     -19.26912689
Cs       0.00000000       0.00000000       2.35515152       0.00000000       0.00000000      19.26912689
2
Properties=species:S:1:pos:R:3:forces:R:3 energy=5.527195758406188 pbc="F F F"
Cs       0.00000000       0.00000000       0.00000000       0.00000000       0.00000000     -16.58121109
Cs       0.00000000       0.00000000       2.41393939       0.00000000       0.00000000      16.58121109
2
Properties=species:S:1:pos:R:3:forces:R:3 energy=4.6245117681030825 pbc="F F F"
Cs       0.00000000       0.00000000       0.00000000       0.00000000       0.00000000     -14.18269348
Cs       0.00000000       0.00000000       2.47272727       0.00000000       0.00000000      14.18269348
2
Properties=species:S:1:pos:R:3:forces:R:3 energy=3.851072875205849 pbc="F F F"
Cs       0.00000000       0.00000000       0.00000000       0.00000000       0.00000000     -12.21337223
Cs       0.00000000       0.00000000       2.53151515       0.00000000       0.00000000      12.21337223
2
Properties=species:S:1:pos:R:3:forces:R:3 energy=3.1794237894172457 pbc="F F F"
Cs       0.00000000       0.00000000       0.00000000       0.00000000       0.00000000     -10.70418453
Cs       0.00000000       0.00000000       2.59030303       0.00000000       0.00000000      10.70418453
2
Properties=species:S:1:pos:R:3:forces:R:3 energy=2.585706472041959 pbc="F F F"
Cs       0.00000000       0.00000000       0.00000000       0.00000000       0.00000000      -9.54179001
Cs       0.00000000       0.00000000       2.64909091       0.00000000       0.00000000       9.54179001
2
Properties=species:S:1:pos:R:3:forces:R:3 energy=2.0534643602577702 pbc="F F F"
Cs       0.00000000       0.00000000       0.00000000       0.00000000       0.00000000      -8.58719921
Cs       0.00000000       0.00000000       2.70787879       0.00000000       0.00000000       8.58719921
2
Properties=species:S:1:pos:R:3:forces:R:3 energy=1.5746518250438286 pbc="F F F"
Cs       0.00000000       0.00000000       0.00000000       0.00000000       0.00000000      -7.70796013
Cs       0.00000000       0.00000000       2.76666667       0.00000000       0.00000000       7.70796013
2
Properties=species:S:1:pos:R:3:forces:R:3 energy=1.1467745771589946 pbc="F F F"
Cs       0.00000000       0.00000000       0.00000000       0.00000000       0.00000000      -6.85219717
Cs       0.00000000       0.00000000       2.82545455       0.00000000       0.00000000       6.85219717
2
Properties=species:S:1:pos:R:3:forces:R:3 energy=0.7684417332979441 pbc="F F F"
Cs       0.00000000       0.00000000       0.00000000       0.00000000       0.00000000      -6.02516556
Cs       0.00000000       0.00000000       2.88424242       0.00000000       0.00000000       6.02516556
2
Properties=species:S:1:pos:R:3:forces:R:3 energy=0.43742890276259133 pbc="F F F"
Cs       0.00000000       0.00000000       0.00000000       0.00000000       0.00000000      -5.24547625
Cs       0.00000000       0.00000000       2.94303030       0.00000000       0.00000000       5.24547625
2
Properties=species:S:1:pos:R:3:forces:R:3 energy=0.15047600929896704 pbc="F F F"
Cs       0.00000000       0.00000000       0.00000000       0.00000000       0.00000000      -4.52813244
Cs       0.00000000       0.00000000       3.00181818       0.00000000       0.00000000       4.52813244
2
Properties=species:S:1:pos:R:3:forces:R:3 energy=-0.0963436385262442 pbc="F F F"
Cs       0.00000000       0.00000000       0.00000000       0.00000000       0.00000000      -3.88061976
Cs       0.00000000       0.00000000       3.06060606       0.00000000       0.00000000       3.88061976
2
Properties=species:S:1:pos:R:3:forces:R:3 energy=-0.30716701099748095 pbc="F F F"
Cs       0.00000000       0.00000000       0.00000000       0.00000000       0.00000000      -3.30343556
Cs       0.00000000       0.00000000       3.11939394       0.00000000       0.00000000       3.30343556
2
Properties=species:S:1:pos:R:3:forces:R:3 energy=-0.486132511286523 pbc="F F F"
Cs       0.00000000       0.00000000       0.00000000       0.00000000       0.00000000      -2.79704404
Cs       0.00000000       0.00000000       3.17818182       0.00000000       0.00000000       2.79704404
2
Properties=species:S:1:pos:R:3:forces:R:3 energy=-0.6374605443011615 pbc="F F F"
Cs       0.00000000       0.00000000       0.00000000       0.00000000       0.00000000      -2.36339521
Cs       0.00000000       0.00000000       3.23696970       0.00000000       0.00000000       2.36339521
2
Properties=species:S:1:pos:R:3:forces:R:3 energy=-0.7654206339282156 pbc="F F F"
Cs       0.00000000       0.00000000       0.00000000       0.00000000       0.00000000      -2.00147057
Cs       0.00000000       0.00000000       3.29575758       0.00000000       0.00000000       2.00147057
2
Properties=species:S:1:pos:R:3:forces:R:3 energy=-0.8740715372788456 pbc="F F F"
Cs       0.00000000       0.00000000       0.00000000       0.00000000       0.00000000      -1.70498538
Cs       0.00000000       0.00000000       3.35454545       0.00000000       0.00000000       1.70498538
2
Properties=species:S:1:pos:R:3:forces:R:3 energy=-0.9669455784898222 pbc="F F F"
Cs       0.00000000       0.00000000       0.00000000       0.00000000       0.00000000      -1.46257341
Cs       0.00000000       0.00000000       3.41333333       0.00000000       0.00000000       1.46257341
2
Properties=species:S:1:pos:R:3:forces:R:3 energy=-1.0468340783379797 pbc="F F F"
Cs       0.00000000       0.00000000       0.00000000       0.00000000       0.00000000      -1.26112890
Cs       0.00000000       0.00000000       3.47212121       0.00000000       0.00000000       1.26112890
2
Properties=species:S:1:pos:R:3:forces:R:3 energy=-1.1158150092114802 pbc="F F F"
Cs       0.00000000       0.00000000       0.00000000       0.00000000       0.00000000      -1.09003782
Cs       0.00000000       0.00000000       3.53090909       0.00000000       0.00000000       1.09003782
2
Properties=species:S:1:pos:R:3:forces:R:3 energy=-1.1754623313739987 pbc="F F F"
Cs       0.00000000       0.00000000       0.00000000       0.00000000       0.00000000      -0.94284499
Cs       0.00000000       0.00000000       3.58969697       0.00000000       0.00000000       0.94284499
2
Properties=species:S:1:pos:R:3:forces:R:3 energy=-1.227078209492945 pbc="F F F"
Cs       0.00000000       0.00000000       0.00000000       0.00000000       0.00000000      -0.81646127
Cs       0.00000000       0.00000000       3.64848485       0.00000000       0.00000000       0.81646127
2
Properties=species:S:1:pos:R:3:forces:R:3 energy=-1.271841801671935 pbc="F F F"
Cs       0.00000000       0.00000000       0.00000000       0.00000000       0.00000000      -0.70966381
Cs       0.00000000       0.00000000       3.70727273       0.00000000       0.00000000       0.70966381
2
Properties=species:S:1:pos:R:3:forces:R:3 energy=-1.3108879296623377 pbc="F F F"
Cs       0.00000000       0.00000000       0.00000000       0.00000000       0.00000000      -0.62168378
Cs       0.00000000       0.00000000       3.76606061       0.00000000       0.00000000       0.62168378
2
Properties=species:S:1:pos:R:3:forces:R:3 energy=-1.3452813439119322 pbc="F F F"
Cs       0.00000000       0.00000000       0.00000000       0.00000000       0.00000000      -0.55115581
Cs       0.00000000       0.00000000       3.82484848       0.00000000       0.00000000       0.55115581
2
Properties=species:S:1:pos:R:3:forces:R:3 energy=-1.3759847746833531 pbc="F F F"
Cs       0.00000000       0.00000000       0.00000000       0.00000000       0.00000000      -0.49568507
Cs       0.00000000       0.00000000       3.88363636       0.00000000       0.00000000       0.49568507
2
Properties=species:S:1:pos:R:3:forces:R:3 energy=-1.4037974446113033 pbc="F F F"
Cs       0.00000000       0.00000000       0.00000000       0.00000000       0.00000000      -0.45213073
Cs       0.00000000       0.00000000       3.94242424       0.00000000       0.00000000       0.45213073
2
Properties=species:S:1:pos:R:3:forces:R:3 energy=-1.4293150112134432 pbc="F F F"
Cs       0.00000000       0.00000000       0.00000000       0.00000000       0.00000000      -0.41726735
Cs       0.00000000       0.00000000       4.00121212       0.00000000       0.00000000       0.41726735
2
Properties=species:S:1:pos:R:3:forces:R:3 energy=-1.4529710699381313 pbc="F F F"
Cs       0.00000000       0.00000000       0.00000000       0.00000000       0.00000000      -0.38835150
Cs       0.00000000       0.00000000       4.06000000       0.00000000       0.00000000       0.38835150
2
Properties=species:S:1:pos:R:3:forces:R:3 energy=-1.4750524414638866 pbc="F F F"
Cs       0.00000000       0.00000000       0.00000000       0.00000000       0.00000000      -0.36336058
Cs       0.00000000       0.00000000       4.11878788       0.00000000       0.00000000       0.36336058
2
Properties=species:S:1:pos:R:3:forces:R:3 energy=-1.4957449615298197 pbc="F F F"
Cs       0.00000000       0.00000000       0.00000000       0.00000000       0.00000000      -0.34094009
Cs       0.00000000       0.00000000       4.17757576       0.00000000       0.00000000       0.34094009
2
Properties=species:S:1:pos:R:3:forces:R:3 energy=-1.5151716548347778 pbc="F F F"
Cs       0.00000000       0.00000000       0.00000000       0.00000000       0.00000000      -0.32022557
Cs       0.00000000       0.00000000       4.23636364       0.00000000       0.00000000       0.32022557
2
Properties=species:S:1:pos:R:3:forces:R:3 energy=-1.533418065219483 pbc="F F F"
Cs       0.00000000       0.00000000       0.00000000       0.00000000       0.00000000      -0.30064633
Cs       0.00000000       0.00000000       4.29515152       0.00000000       0.00000000       0.30064633
2
Properties=species:S:1:pos:R:3:forces:R:3 energy=-1.5505327657658237 pbc="F F F"
Cs       0.00000000       0.00000000       0.00000000       0.00000000       0.00000000      -0.28178185
Cs       0.00000000       0.00000000       4.35393939       0.00000000       0.00000000       0.28178185
2
Properties=species:S:1:pos:R:3:forces:R:3 energy=-1.5665539246294433 pbc="F F F"
Cs       0.00000000       0.00000000       0.00000000       0.00000000       0.00000000      -0.26327649
Cs       0.00000000       0.00000000       4.41272727       0.00000000       0.00000000       0.26327649
2
Properties=species:S:1:pos:R:3:forces:R:3 energy=-1.5814895923254064 pbc="F F F"
Cs       0.00000000       0.00000000       0.00000000       0.00000000       0.00000000      -0.24482110
Cs       0.00000000       0.00000000       4.47151515       0.00000000       0.00000000       0.24482110
2
Properties=species:S:1:pos:R:3:forces:R:3 energy=-1.5953359981462951 pbc="F F F"
Cs       0.00000000       0.00000000       0.00000000       0.00000000       0.00000000      -0.22616653
Cs       0.00000000       0.00000000       4.53030303       0.00000000       0.00000000       0.22616653
2
Properties=species:S:1:pos:R:3:forces:R:3 energy=-1.6080748831683669 pbc="F F F"
Cs       0.00000000       0.00000000       0.00000000       0.00000000       0.00000000      -0.20714848
Cs       0.00000000       0.00000000       4.58909091       0.00000000       0.00000000       0.20714848
2
Properties=species:S:1:pos:R:3:forces:R:3 energy=-1.6196821822748813 pbc="F F F"
Cs       0.00000000       0.00000000       0.00000000       0.00000000       0.00000000      -0.18770856
Cs       0.00000000       0.00000000       4.64787879       0.00000000       0.00000000       0.18770856
2
Properties=species:S:1:pos:R:3:forces:R:3 energy=-1.630138032904764 pbc="F F F"
Cs       0.00000000       0.00000000       0.00000000       0.00000000       0.00000000      -0.16789718
Cs       0.00000000       0.00000000       4.70666667       0.00000000       0.00000000       0.16789718
2
Properties=species:S:1:pos:R:3:forces:R:3 energy=-1.6394188952402764 pbc="F F F"
Cs       0.00000000       0.00000000       0.00000000       0.00000000       0.00000000      -0.14788119
Cs       0.00000000       0.00000000       4.76545455       0.00000000       0.00000000       0.14788119
2
Properties=species:S:1:pos:R:3:forces:R:3 energy=-1.6475246319388237 pbc="F F F"
Cs       0.00000000       0.00000000       0.00000000       0.00000000       0.00000000      -0.12793735
Cs       0.00000000       0.00000000       4.82424242       0.00000000       0.00000000       0.12793735
2
Properties=species:S:1:pos:R:3:forces:R:3 energy=-1.654470881626507 pbc="F F F"
Cs       0.00000000       0.00000000       0.00000000       0.00000000       0.00000000      -0.10846522
Cs       0.00000000       0.00000000       4.88303030       0.00000000       0.00000000       0.10846522
2
Properties=species:S:1:pos:R:3:forces:R:3 energy=-1.6602994902713084 pbc="F F F"
Cs       0.00000000       0.00000000       0.00000000       0.00000000       0.00000000      -0.08998653
Cs       0.00000000       0.00000000       4.94181818       0.00000000       0.00000000       0.08998653
2
Properties=species:S:1:pos:R:3:forces:R:3 energy=-1.6650838975124718 pbc="F F F"
Cs       0.00000000       0.00000000       0.00000000       0.00000000       0.00000000      -0.07317840
Cs       0.00000000       0.00000000       5.00060606       0.00000000       0.00000000       0.07317840
2
Properties=species:S:1:pos:R:3:forces:R:3 energy=-1.6689504895474234 pbc="F F F"
Cs       0.00000000       0.00000000       0.00000000       0.00000000       0.00000000      -0.05887418
Cs       0.00000000       0.00000000       5.05939394       0.00000000       0.00000000       0.05887418
2
Properties=species:S:1:pos:R:3:forces:R:3 energy=-1.6720752605450455 pbc="F F F"
Cs       0.00000000       0.00000000       0.00000000       0.00000000       0.00000000      -0.04809061
Cs       0.00000000       0.00000000       5.11818182       0.00000000       0.00000000       0.04809061
2
Properties=species:S:1:pos:R:3:forces:R:3 energy=-1.6746993021516556 pbc="F F F"
Cs       0.00000000       0.00000000       0.00000000       0.00000000       0.00000000      -0.04204186
Cs       0.00000000       0.00000000       5.17696970       0.00000000       0.00000000       0.04204186
2
Properties=species:S:1:pos:R:3:forces:R:3 energy=-1.6771392239147822 pbc="F F F"
Cs       0.00000000       0.00000000       0.00000000       0.00000000       0.00000000      -0.04211663
Cs       0.00000000       0.00000000       5.23575758       0.00000000       0.00000000       0.04211663
2
Properties=species:S:1:pos:R:3:forces:R:3 energy=-1.6797965799226264 pbc="F F F"
Cs       0.00000000       0.00000000       0.00000000       0.00000000       0.00000000      -0.04971768
Cs       0.00000000       0.00000000       5.29454545       0.00000000       0.00000000       0.04971768
2
Properties=species:S:1:pos:R:3:forces:R:3 energy=-1.6831503466831912 pbc="F F F"
Cs       0.00000000       0.00000000       0.00000000       0.00000000       0.00000000      -0.06575904
Cs       0.00000000       0.00000000       5.35333333       0.00000000       0.00000000       0.06575904
2
Properties=species:S:1:pos:R:3:forces:R:3 energy=-1.687685927754149 pbc="F F F"
Cs       0.00000000       0.00000000       0.00000000       0.00000000       0.00000000      -0.08966276
Cs       0.00000000       0.00000000       5.41212121       0.00000000       0.00000000       0.08966276
2
Properties=species:S:1:pos:R:3:forces:R:3 energy=-1.693783309509725 pbc="F F F"
Cs       0.00000000       0.00000000       0.00000000       0.00000000       0.00000000      -0.11810796
Cs       0.00000000       0.00000000       5.47090909       0.00000000       0.00000000       0.11810796
2
Properties=species:S:1:pos:R:3:forces:R:3 energy=-1.701536074455548 pbc="F F F"
Cs       0.00000000       0.00000000       0.00000000       0.00000000       0.00000000      -0.14468224
Cs       0.00000000       0.00000000       5.52969697       0.00000000       0.00000000       0.14468224
2
Properties=species:S:1:pos:R:3:forces:R:3 energy=-1.7106084120579497 pbc="F F F"
Cs       0.00000000       0.00000000       0.00000000       0.00000000       0.00000000      -0.16176647
Cs       0.00000000       0.00000000       5.58848485       0.00000000       0.00000000       0.16176647
2
Properties=species:S:1:pos:R:3:forces:R:3 energy=-1.7202647790954035 pbc="F F F"
Cs       0.00000000       0.00000000       0.00000000       0.00000000       0.00000000      -0.16418923
Cs       0.00000000       0.00000000       5.64727273       0.00000000       0.00000000       0.16418923
2
Properties=species:S:1:pos:R:3:forces:R:3 energy=-1.729619294485778 pbc="F F F"
Cs       0.00000000       0.00000000       0.00000000       0.00000000       0.00000000      -0.15180936
Cs       0.00000000       0.00000000       5.70606061       0.00000000       0.00000000       0.15180936
2
Properties=species:S:1:pos:R:3:forces:R:3 energy=-1.7379068456035056 pbc="F F F"
Cs       0.00000000       0.00000000       0.00000000       0.00000000       0.00000000      -0.12885383
Cs       0.00000000       0.00000000       5.76484848       0.00000000       0.00000000       0.12885383
2
Properties=species:S:1:pos:R:3:forces:R:3 energy=-1.7446753967430049 pbc="F F F"
Cs       0.00000000       0.00000000       0.00000000       0.00000000       0.00000000      -0.10107303
Cs       0.00000000       0.00000000       5.82363636       0.00000000       0.00000000       0.10107303
2
Properties=species:S:1:pos:R:3:forces:R:3 energy=-1.7497921750107515 pbc="F F F"
Cs       0.00000000       0.00000000       0.00000000       0.00000000       0.00000000      -0.07325348
Cs       0.00000000       0.00000000       5.88242424       0.00000000       0.00000000       0.07325348
2
Properties=species:S:1:pos:R:3:forces:R:3 energy=-1.7533463688116462 pbc="F F F"
Cs       0.00000000       0.00000000       0.00000000       0.00000000       0.00000000      -0.04826950
Cs       0.00000000       0.00000000       5.94121212       0.00000000       0.00000000       0.04826950
2
Properties=species:S:1:pos:R:3:forces:R:3 energy=-1.7555461231984175 pbc="F F F"
Cs       0.00000000       0.00000000       0.00000000       0.00000000       0.00000000      -0.02732364
Cs       0.00000000       0.00000000       6.00000000       0.00000000       0.00000000       0.02732364
