2
Properties=species:S:1:pos:R:3:forces:R:3 energy=-560.6531551992236 pbc="F F F"
Cu       0.00000000       0.00000000       0.00000000       0.00000000       0.00000000    4975.42431641
Cu       0.00000000       0.00000000       0.18000000       0.00000000       0.00000000   -4975.42431641
2
Properties=species:S:1:pos:R:3:forces:R:3 energy=-300.9003475820361 pbc="F F F"
Cu       0.00000000       0.00000000       0.00000000       0.00000000       0.00000000    3706.68090820
Cu       0.00000000       0.00000000       0.23878788       0.00000000       0.00000000   -3706.68090820
2
Properties=species:S:1:pos:R:3:forces:R:3 energy=-129.61343657129393 pbc="F F F"
Cu       0.00000000       0.00000000       0.00000000       0.00000000       0.00000000    2150.69653320
Cu       0.00000000       0.00000000       0.29757576       0.00000000       0.00000000   -2150.69653320
2
Properties=species:S:1:pos:R:3:forces:R:3 energy=-40.912077776127916 pbc="F F F"
Cu       0.00000000       0.00000000       0.00000000       0.00000000       0.00000000     936.60198975
Cu       0.00000000       0.00000000       0.35636364       0.00000000       0.00000000    -936.60198975
2
Properties=species:S:1:pos:R:3:forces:R:3 energy=-5.048757419145296 pbc="F F F"
Cu       0.00000000       0.00000000       0.00000000       0.00000000       0.00000000     356.45040894
Cu       0.00000000       0.00000000       0.41515152       0.00000000       0.00000000    -356.45040894
2
Properties=species:S:1:pos:R:3:forces:R:3 energy=7.478661683796988 pbc="F F F"
Cu       0.00000000       0.00000000       0.00000000       0.00000000       0.00000000     122.36913300
Cu       0.00000000       0.00000000       0.47393939       0.00000000       0.00000000    -122.36913300
2
Properties=species:S:1:pos:R:3:forces:R:3 energy=11.83819215805314 pbc="F F F"
Cu       0.00000000       0.00000000       0.00000000       0.00000000       0.00000000      23.67084122
Cu       0.00000000       0.00000000       0.53272727       0.00000000       0.00000000     -23.67084122
2
Properties=species:S:1:pos:R:3:forces:R:3 energy=11.877990932639271 pbc="F F F"
Cu       0.00000000       0.00000000       0.00000000       0.00000000       0.00000000     130.08271790
Cu       0.00000000       0.00000000       0.59151515       0.00000000       0.00000000    -130.08271790
2
Properties=species:S:1:pos:R:3:forces:R:3 energy=15.549499791393858 pbc="F F F"
Cu       0.00000000       0.00000000       0.00000000       0.00000000       0.00000000      32.39085770
Cu       0.00000000       0.00000000       0.65030303       0.00000000       0.00000000     -32.39085770
2
Properties=species:S:1:pos:R:3:forces:R:3 energy=21.582761195065288 pbc="F F F"
Cu       0.00000000       0.00000000       0.00000000       0.00000000       0.00000000     153.39202881
Cu       0.00000000       0.00000000       0.70909091       0.00000000       0.00000000    -153.39202881
2
Properties=species:S:1:pos:R:3:forces:R:3 energy=27.13392407635078 pbc="F F F"
Cu       0.00000000       0.00000000       0.00000000       0.00000000       0.00000000      -4.17838049
Cu       0.00000000       0.00000000       0.76787879       0.00000000       0.00000000       4.17838049
2
Properties=species:S:1:pos:R:3:forces:R:3 energy=23.617383783425872 pbc="F F F"
Cu       0.00000000       0.00000000       0.00000000       0.00000000       0.00000000     -84.88435364
Cu       0.00000000       0.00000000       0.82666667       0.00000000       0.00000000      84.88435364
2
Properties=species:S:1:pos:R:3:forces:R:3 energy=19.426027463447294 pbc="F F F"
Cu       0.00000000       0.00000000       0.00000000       0.00000000       0.00000000     -56.59128952
Cu       0.00000000       0.00000000       0.88545455       0.00000000       0.00000000      56.59128952
2
Properties=species:S:1:pos:R:3:forces:R:3 energy=16.469877886856796 pbc="F F F"
Cu       0.00000000       0.00000000       0.00000000       0.00000000       0.00000000     -50.74113083
Cu       0.00000000       0.00000000       0.94424242       0.00000000       0.00000000      50.74113083
2
Properties=species:S:1:pos:R:3:forces:R:3 energy=13.42533526996395 pbc="F F F"
Cu       0.00000000       0.00000000       0.00000000       0.00000000       0.00000000     -48.38147736
Cu       0.00000000       0.00000000       1.00303030       0.00000000       0.00000000      48.38147736
2
Properties=species:S:1:pos:R:3:forces:R:3 energy=10.859326632301956 pbc="F F F"
Cu       0.00000000       0.00000000       0.00000000       0.00000000       0.00000000     -39.80244446
Cu       0.00000000       0.00000000       1.06181818       0.00000000       0.00000000      39.80244446
2
Properties=species:S:1:pos:R:3:forces:R:3 energy=8.588696964741512 pbc="F F F"
Cu       0.00000000       0.00000000       0.00000000       0.00000000       0.00000000     -41.94454575
Cu       0.00000000       0.00000000       1.12060606       0.00000000       0.00000000      41.94454575
2
Properties=species:S:1:pos:R:3:forces:R:3 energy=6.219911682970996 pbc="F F F"
Cu       0.00000000       0.00000000       0.00000000       0.00000000       0.00000000     -35.46529007
Cu       0.00000000       0.00000000       1.17939394       0.00000000       0.00000000      35.46529007
2
Properties=species:S:1:pos:R:3:forces:R:3 energy=4.338648979443188 pbc="F F F"
Cu       0.00000000       0.00000000       0.00000000       0.00000000       0.00000000     -30.80380249
Cu       0.00000000       0.00000000       1.23818182       0.00000000       0.00000000      30.80380249
2
Properties=species:S:1:pos:R:3:forces:R:3 energy=2.7491663452438746 pbc="F F F"
Cu       0.00000000       0.00000000       0.00000000       0.00000000       0.00000000     -23.37202263
Cu       0.00000000       0.00000000       1.29696970       0.00000000       0.00000000      23.37202263
2
Properties=species:S:1:pos:R:3:forces:R:3 energy=1.5660192596370175 pbc="F F F"
Cu       0.00000000       0.00000000       0.00000000       0.00000000       0.00000000     -17.36849022
Cu       0.00000000       0.00000000       1.35575758       0.00000000       0.00000000      17.36849022
2
Properties=species:S:1:pos:R:3:forces:R:3 energy=0.6441768866649932 pbc="F F F"
Cu       0.00000000       0.00000000       0.00000000       0.00000000       0.00000000     -13.81411457
Cu       0.00000000       0.00000000       1.41454545       0.00000000       0.00000000      13.81411457
2
Properties=species:S:1:pos:R:3:forces:R:3 energy=-0.03145061032523087 pbc="F F F"
Cu       0.00000000       0.00000000       0.00000000       0.00000000       0.00000000      -9.50200176
Cu       0.00000000       0.00000000       1.47333333       0.00000000       0.00000000       9.50200176
2
Properties=species:S:1:pos:R:3:forces:R:3 energy=-0.5345153087203806 pbc="F F F"
Cu       0.00000000       0.00000000       0.00000000       0.00000000       0.00000000      -7.80124903
Cu       0.00000000       0.00000000       1.53212121       0.00000000       0.00000000       7.80124903
2
Properties=species:S:1:pos:R:3:forces:R:3 energy=-0.9446964949155806 pbc="F F F"
Cu       0.00000000       0.00000000       0.00000000       0.00000000       0.00000000      -6.21251011
Cu       0.00000000       0.00000000       1.59090909       0.00000000       0.00000000       6.21251011
2
Properties=species:S:1:pos:R:3:forces:R:3 energy=-1.2821374719135241 pbc="F F F"
Cu       0.00000000       0.00000000       0.00000000       0.00000000       0.00000000      -5.33438301
Cu       0.00000000       0.00000000       1.64969697       0.00000000       0.00000000       5.33438301
2
Properties=species:S:1:pos:R:3:forces:R:3 energy=-1.579955299606896 pbc="F F F"
Cu       0.00000000       0.00000000       0.00000000       0.00000000       0.00000000      -4.85247612
Cu       0.00000000       0.00000000       1.70848485       0.00000000       0.00000000       4.85247612
2
Properties=species:S:1:pos:R:3:forces:R:3 energy=-1.8575026944935544 pbc="F F F"
Cu       0.00000000       0.00000000       0.00000000       0.00000000       0.00000000      -4.65650797
Cu       0.00000000       0.00000000       1.76727273       0.00000000       0.00000000       4.65650797
2
Properties=species:S:1:pos:R:3:forces:R:3 energy=-2.1387787060191115 pbc="F F F"
Cu       0.00000000       0.00000000       0.00000000       0.00000000       0.00000000      -4.90323544
Cu       0.00000000       0.00000000       1.82606061       0.00000000       0.00000000       4.90323544
2
Properties=species:S:1:pos:R:3:forces:R:3 energy=-2.4141149744603743 pbc="F F F"
Cu       0.00000000       0.00000000       0.00000000       0.00000000       0.00000000      -4.43066692
Cu       0.00000000       0.00000000       1.88484848       0.00000000       0.00000000       4.43066692
2
Properties=species:S:1:pos:R:3:forces:R:3 energy=-2.65477866532278 pbc="F F F"
Cu       0.00000000       0.00000000       0.00000000       0.00000000       0.00000000      -3.67545509
Cu       0.00000000       0.00000000       1.94363636       0.00000000       0.00000000       3.67545509
2
Properties=species:S:1:pos:R:3:forces:R:3 energy=-2.8456090824541342 pbc="F F F"
Cu       0.00000000       0.00000000       0.00000000       0.00000000       0.00000000      -2.85644984
Cu       0.00000000       0.00000000       2.00242424       0.00000000       0.00000000       2.85644984
2
Properties=species:S:1:pos:R:3:forces:R:3 energy=-2.9914628841788775 pbc="F F F"
Cu       0.00000000       0.00000000       0.00000000       0.00000000       0.00000000      -2.08900023
Cu       0.00000000       0.00000000       2.06121212       0.00000000       0.00000000       2.08900023
2
Properties=species:S:1:pos:R:3:forces:R:3 energy=-3.0908294198858877 pbc="F F F"
Cu       0.00000000       0.00000000       0.00000000       0.00000000       0.00000000      -1.28802085
Cu       0.00000000       0.00000000       2.12000000       0.00000000       0.00000000       1.28802085
2
Properties=species:S:1:pos:R:3:forces:R:3 energy=-3.143308188408548 pbc="F F F"
Cu       0.00000000       0.00000000       0.00000000       0.00000000       0.00000000      -0.52624834
Cu       0.00000000       0.00000000       2.17878788       0.00000000       0.00000000       0.52624834
2
Properties=species:S:1:pos:R:3:forces:R:3 energy=-3.1575845538933436 pbc="F F F"
Cu       0.00000000       0.00000000       0.00000000       0.00000000       0.00000000       0.00039273
Cu       0.00000000       0.00000000       2.23757576       0.00000000       0.00000000      -0.00039273
2
Properties=species:S:1:pos:R:3:forces:R:3 energy=-3.1473630284492717 pbc="F F F"
Cu       0.00000000       0.00000000       0.00000000       0.00000000       0.00000000       0.32261479
Cu       0.00000000       0.00000000       2.29636364       0.00000000       0.00000000      -0.32261479
2
Properties=species:S:1:pos:R:3:forces:R:3 energy=-3.1212953723574954 pbc="F F F"
Cu       0.00000000       0.00000000       0.00000000       0.00000000       0.00000000       0.55569130
Cu       0.00000000       0.00000000       2.35515152       0.00000000       0.00000000      -0.55569130
2
Properties=species:S:1:pos:R:3:forces:R:3 energy=-3.0827485992288266 pbc="F F F"
Cu       0.00000000       0.00000000       0.00000000       0.00000000       0.00000000       0.75068820
Cu       0.00000000       0.00000000       2.41393939       0.00000000       0.00000000      -0.75068820
2
Properties=species:S:1:pos:R:3:forces:R:3 energy=-3.0342368104702335 pbc="F F F"
Cu       0.00000000       0.00000000       0.00000000       0.00000000       0.00000000       0.88237000
Cu       0.00000000       0.00000000       2.47272727       0.00000000       0.00000000      -0.88237000
2
Properties=species:S:1:pos:R:3:forces:R:3 energy=-2.9809352817351025 pbc="F F F"
Cu       0.00000000       0.00000000       0.00000000       0.00000000       0.00000000       0.92196476
Cu       0.00000000       0.00000000       2.53151515       0.00000000       0.00000000      -0.92196476
2
Properties=species:S:1:pos:R:3:forces:R:3 energy=-2.926130732349034 pbc="F F F"
Cu       0.00000000       0.00000000       0.00000000       0.00000000       0.00000000       0.94198781
Cu       0.00000000       0.00000000       2.59030303       0.00000000       0.00000000      -0.94198781
2
Properties=species:S:1:pos:R:3:forces:R:3 energy=-2.8703820137158393 pbc="F F F"
Cu       0.00000000       0.00000000       0.00000000       0.00000000       0.00000000       0.95226645
Cu       0.00000000       0.00000000       2.64909091       0.00000000       0.00000000      -0.95226645
2
Properties=species:S:1:pos:R:3:forces:R:3 energy=-2.8143276108569175 pbc="F F F"
Cu       0.00000000       0.00000000       0.00000000       0.00000000       0.00000000       0.95478284
Cu       0.00000000       0.00000000       2.70787879       0.00000000       0.00000000      -0.95478284
2
Properties=species:S:1:pos:R:3:forces:R:3 energy=-2.758023357006618 pbc="F F F"
Cu       0.00000000       0.00000000       0.00000000       0.00000000       0.00000000       0.96156025
Cu       0.00000000       0.00000000       2.76666667       0.00000000       0.00000000      -0.96156025
2
Properties=species:S:1:pos:R:3:forces:R:3 energy=-2.7012791667684652 pbc="F F F"
Cu       0.00000000       0.00000000       0.00000000       0.00000000       0.00000000       0.96771926
Cu       0.00000000       0.00000000       2.82545455       0.00000000       0.00000000      -0.96771926
2
Properties=species:S:1:pos:R:3:forces:R:3 energy=-2.6445024442199507 pbc="F F F"
Cu       0.00000000       0.00000000       0.00000000       0.00000000       0.00000000       0.96100479
Cu       0.00000000       0.00000000       2.88424242       0.00000000       0.00000000      -0.96100479
2
Properties=species:S:1:pos:R:3:forces:R:3 energy=-2.5886336773184366 pbc="F F F"
Cu       0.00000000       0.00000000       0.00000000       0.00000000       0.00000000       0.93703282
Cu       0.00000000       0.00000000       2.94303030       0.00000000       0.00000000      -0.93703282
2
Properties=species:S:1:pos:R:3:forces:R:3 energy=-2.534559953290728 pbc="F F F"
Cu       0.00000000       0.00000000       0.00000000       0.00000000       0.00000000       0.90131557
Cu       0.00000000       0.00000000       3.00181818       0.00000000       0.00000000      -0.90131557
2
Properties=species:S:1:pos:R:3:forces:R:3 energy=-2.482751462371015 pbc="F F F"
Cu       0.00000000       0.00000000       0.00000000       0.00000000       0.00000000       0.86074263
Cu       0.00000000       0.00000000       3.06060606       0.00000000       0.00000000      -0.86074263
2
Properties=species:S:1:pos:R:3:forces:R:3 energy=-2.4334194809721654 pbc="F F F"
Cu       0.00000000       0.00000000       0.00000000       0.00000000       0.00000000       0.81696385
Cu       0.00000000       0.00000000       3.11939394       0.00000000       0.00000000      -0.81696385
2
Properties=species:S:1:pos:R:3:forces:R:3 energy=-2.3867622651443 pbc="F F F"
Cu       0.00000000       0.00000000       0.00000000       0.00000000       0.00000000       0.76991016
Cu       0.00000000       0.00000000       3.17818182       0.00000000       0.00000000      -0.76991016
2
Properties=species:S:1:pos:R:3:forces:R:3 energy=-2.342932958592555 pbc="F F F"
Cu       0.00000000       0.00000000       0.00000000       0.00000000       0.00000000       0.72099745
Cu       0.00000000       0.00000000       3.23696970       0.00000000       0.00000000      -0.72099745
2
Properties=species:S:1:pos:R:3:forces:R:3 energy=-2.3020014022848394 pbc="F F F"
Cu       0.00000000       0.00000000       0.00000000       0.00000000       0.00000000       0.67148191
Cu       0.00000000       0.00000000       3.29575758       0.00000000       0.00000000      -0.67148191
2
Properties=species:S:1:pos:R:3:forces:R:3 energy=-2.263979148948828 pbc="F F F"
Cu       0.00000000       0.00000000       0.00000000       0.00000000       0.00000000       0.62216520
Cu       0.00000000       0.00000000       3.35454545       0.00000000       0.00000000      -0.62216520
2
Properties=species:S:1:pos:R:3:forces:R:3 energy=-2.228828229235091 pbc="F F F"
Cu       0.00000000       0.00000000       0.00000000       0.00000000       0.00000000       0.57396811
Cu       0.00000000       0.00000000       3.41333333       0.00000000       0.00000000      -0.57396811
2
Properties=species:S:1:pos:R:3:forces:R:3 energy=-2.1964478363069975 pbc="F F F"
Cu       0.00000000       0.00000000       0.00000000       0.00000000       0.00000000       0.52815086
Cu       0.00000000       0.00000000       3.47212121       0.00000000       0.00000000      -0.52815086
2
Properties=species:S:1:pos:R:3:forces:R:3 energy=-2.166656955138716 pbc="F F F"
Cu       0.00000000       0.00000000       0.00000000       0.00000000       0.00000000       0.48608738
Cu       0.00000000       0.00000000       3.53090909       0.00000000       0.00000000      -0.48608738
2
Properties=species:S:1:pos:R:3:forces:R:3 energy=-2.1392056733986293 pbc="F F F"
Cu       0.00000000       0.00000000       0.00000000       0.00000000       0.00000000       0.44858888
Cu       0.00000000       0.00000000       3.58969697       0.00000000       0.00000000      -0.44858888
2
Properties=species:S:1:pos:R:3:forces:R:3 energy=-2.113824821535109 pbc="F F F"
Cu       0.00000000       0.00000000       0.00000000       0.00000000       0.00000000       0.41557145
Cu       0.00000000       0.00000000       3.64848485       0.00000000       0.00000000      -0.41557145
2
Properties=species:S:1:pos:R:3:forces:R:3 energy=-2.090270133234706 pbc="F F F"
Cu       0.00000000       0.00000000       0.00000000       0.00000000       0.00000000       0.38635013
Cu       0.00000000       0.00000000       3.70727273       0.00000000       0.00000000      -0.38635013
2
Properties=species:S:1:pos:R:3:forces:R:3 energy=-2.0683419287941662 pbc="F F F"
Cu       0.00000000       0.00000000       0.00000000       0.00000000       0.00000000       0.36005068
Cu       0.00000000       0.00000000       3.76606061       0.00000000       0.00000000      -0.36005068
2
Properties=species:S:1:pos:R:3:forces:R:3 energy=-2.047896806302357 pbc="F F F"
Cu       0.00000000       0.00000000       0.00000000       0.00000000       0.00000000       0.33578718
Cu       0.00000000       0.00000000       3.82484848       0.00000000       0.00000000      -0.33578718
2
Properties=species:S:1:pos:R:3:forces:R:3 energy=-2.0288389762080437 pbc="F F F"
Cu       0.00000000       0.00000000       0.00000000       0.00000000       0.00000000       0.31269124
Cu       0.00000000       0.00000000       3.88363636       0.00000000       0.00000000      -0.31269124
2
Properties=species:S:1:pos:R:3:forces:R:3 energy=-2.011124609875109 pbc="F F F"
Cu       0.00000000       0.00000000       0.00000000       0.00000000       0.00000000       0.28998485
Cu       0.00000000       0.00000000       3.94242424       0.00000000       0.00000000      -0.28998485
2
Properties=species:S:1:pos:R:3:forces:R:3 energy=-1.9947470703019416 pbc="F F F"
Cu       0.00000000       0.00000000       0.00000000       0.00000000       0.00000000       0.26712781
Cu       0.00000000       0.00000000       4.00121212       0.00000000       0.00000000      -0.26712781
2
Properties=species:S:1:pos:R:3:forces:R:3 energy=-1.9797229761378914 pbc="F F F"
Cu       0.00000000       0.00000000       0.00000000       0.00000000       0.00000000       0.24396066
Cu       0.00000000       0.00000000       4.06000000       0.00000000       0.00000000      -0.24396066
2
Properties=species:S:1:pos:R:3:forces:R:3 energy=-1.9660648952523687 pbc="F F F"
Cu       0.00000000       0.00000000       0.00000000       0.00000000       0.00000000       0.22073269
Cu       0.00000000       0.00000000       4.11878788       0.00000000       0.00000000      -0.22073269
2
Properties=species:S:1:pos:R:3:forces:R:3 energy=-1.9537613365811313 pbc="F F F"
Cu       0.00000000       0.00000000       0.00000000       0.00000000       0.00000000       0.19796856
Cu       0.00000000       0.00000000       4.17757576       0.00000000       0.00000000      -0.19796856
2
Properties=species:S:1:pos:R:3:forces:R:3 energy=-1.94276839997229 pbc="F F F"
Cu       0.00000000       0.00000000       0.00000000       0.00000000       0.00000000       0.17625812
Cu       0.00000000       0.00000000       4.23636364       0.00000000       0.00000000      -0.17625812
2
Properties=species:S:1:pos:R:3:forces:R:3 energy=-1.9330073666579402 pbc="F F F"
Cu       0.00000000       0.00000000       0.00000000       0.00000000       0.00000000       0.15607083
Cu       0.00000000       0.00000000       4.29515152       0.00000000       0.00000000      -0.15607083
2
Properties=species:S:1:pos:R:3:forces:R:3 energy=-1.9243826701785327 pbc="F F F"
Cu       0.00000000       0.00000000       0.00000000       0.00000000       0.00000000       0.13766794
Cu       0.00000000       0.00000000       4.35393939       0.00000000       0.00000000      -0.13766794
2
Properties=species:S:1:pos:R:3:forces:R:3 energy=-1.9167855558568543 pbc="F F F"
Cu       0.00000000       0.00000000       0.00000000       0.00000000       0.00000000       0.12109975
Cu       0.00000000       0.00000000       4.41272727       0.00000000       0.00000000      -0.12109975
2
Properties=species:S:1:pos:R:3:forces:R:3 energy=-1.9101102964292291 pbc="F F F"
Cu       0.00000000       0.00000000       0.00000000       0.00000000       0.00000000       0.10626227
Cu       0.00000000       0.00000000       4.47151515       0.00000000       0.00000000      -0.10626227
2
Properties=species:S:1:pos:R:3:forces:R:3 energy=-1.9042606951194254 pbc="F F F"
Cu       0.00000000       0.00000000       0.00000000       0.00000000       0.00000000       0.09296946
Cu       0.00000000       0.00000000       4.53030303       0.00000000       0.00000000      -0.09296946
2
Properties=species:S:1:pos:R:3:forces:R:3 energy=-1.8991524428979591 pbc="F F F"
Cu       0.00000000       0.00000000       0.00000000       0.00000000       0.00000000       0.08101986
Cu       0.00000000       0.00000000       4.58909091       0.00000000       0.00000000      -0.08101986
2
Properties=species:S:1:pos:R:3:forces:R:3 energy=-1.894712142633022 pbc="F F F"
Cu       0.00000000       0.00000000       0.00000000       0.00000000       0.00000000       0.07024810
Cu       0.00000000       0.00000000       4.64787879       0.00000000       0.00000000      -0.07024810
2
Properties=species:S:1:pos:R:3:forces:R:3 energy=-1.890872021116143 pbc="F F F"
Cu       0.00000000       0.00000000       0.00000000       0.00000000       0.00000000       0.06055041
Cu       0.00000000       0.00000000       4.70666667       0.00000000       0.00000000      -0.06055041
2
Properties=species:S:1:pos:R:3:forces:R:3 energy=-1.8875722784019349 pbc="F F F"
Cu       0.00000000       0.00000000       0.00000000       0.00000000       0.00000000       0.05189279
Cu       0.00000000       0.00000000       4.76545455       0.00000000       0.00000000      -0.05189279
2
Properties=species:S:1:pos:R:3:forces:R:3 energy=-1.884748770821446 pbc="F F F"
Cu       0.00000000       0.00000000       0.00000000       0.00000000       0.00000000       0.04429688
Cu       0.00000000       0.00000000       4.82424242       0.00000000       0.00000000      -0.04429688
2
Properties=species:S:1:pos:R:3:forces:R:3 energy=-1.8823415687084317 pbc="F F F"
Cu       0.00000000       0.00000000       0.00000000       0.00000000       0.00000000       0.03781668
Cu       0.00000000       0.00000000       4.88303030       0.00000000       0.00000000      -0.03781668
2
Properties=species:S:1:pos:R:3:forces:R:3 energy=-1.8802811677195412 pbc="F F F"
Cu       0.00000000       0.00000000       0.00000000       0.00000000       0.00000000       0.03250208
Cu       0.00000000       0.00000000       4.94181818       0.00000000       0.00000000      -0.03250208
2
Properties=species:S:1:pos:R:3:forces:R:3 energy=-1.8784971051652997 pbc="F F F"
Cu       0.00000000       0.00000000       0.00000000       0.00000000       0.00000000       0.02836668
Cu       0.00000000       0.00000000       5.00060606       0.00000000       0.00000000      -0.02836668
2
Properties=species:S:1:pos:R:3:forces:R:3 energy=-1.8769237897619593 pbc="F F F"
Cu       0.00000000       0.00000000       0.00000000       0.00000000       0.00000000       0.02535446
Cu       0.00000000       0.00000000       5.05939394       0.00000000       0.00000000      -0.02535446
2
Properties=species:S:1:pos:R:3:forces:R:3 energy=-1.8754971384288137 pbc="F F F"
Cu       0.00000000       0.00000000       0.00000000       0.00000000       0.00000000       0.02332379
Cu       0.00000000       0.00000000       5.11818182       0.00000000       0.00000000      -0.02332379
2
Properties=species:S:1:pos:R:3:forces:R:3 energy=-1.874166573244886 pbc="F F F"
Cu       0.00000000       0.00000000       0.00000000       0.00000000       0.00000000       0.02205156
Cu       0.00000000       0.00000000       5.17696970       0.00000000       0.00000000      -0.02205156
2
Properties=species:S:1:pos:R:3:forces:R:3 energy=-1.8728951133157703 pbc="F F F"
Cu       0.00000000       0.00000000       0.00000000       0.00000000       0.00000000       0.02125752
Cu       0.00000000       0.00000000       5.23575758       0.00000000       0.00000000      -0.02125752
2
Properties=species:S:1:pos:R:3:forces:R:3 energy=-1.8716641170106805 pbc="F F F"
Cu       0.00000000       0.00000000       0.00000000       0.00000000       0.00000000       0.02064717
Cu       0.00000000       0.00000000       5.29454545       0.00000000       0.00000000      -0.02064717
2
Properties=species:S:1:pos:R:3:forces:R:3 energy=-1.8704690941742033 pbc="F F F"
Cu       0.00000000       0.00000000       0.00000000       0.00000000       0.00000000       0.01995915
Cu       0.00000000       0.00000000       5.35333333       0.00000000       0.00000000      -0.01995915
2
Properties=species:S:1:pos:R:3:forces:R:3 energy=-1.8693221109029314 pbc="F F F"
Cu       0.00000000       0.00000000       0.00000000       0.00000000       0.00000000       0.01900755
Cu       0.00000000       0.00000000       5.41212121       0.00000000       0.00000000      -0.01900755
2
Properties=species:S:1:pos:R:3:forces:R:3 energy=-1.8682417902203428 pbc="F F F"
Cu       0.00000000       0.00000000       0.00000000       0.00000000       0.00000000       0.01770530
Cu       0.00000000       0.00000000       5.47090909       0.00000000       0.00000000      -0.01770530
2
Properties=species:S:1:pos:R:3:forces:R:3 energy=-1.8672476486356102 pbc="F F F"
Cu       0.00000000       0.00000000       0.00000000       0.00000000       0.00000000       0.01606808
Cu       0.00000000       0.00000000       5.52969697       0.00000000       0.00000000      -0.01606808
2
Properties=species:S:1:pos:R:3:forces:R:3 energy=-1.8663567804582497 pbc="F F F"
Cu       0.00000000       0.00000000       0.00000000       0.00000000       0.00000000       0.01419590
Cu       0.00000000       0.00000000       5.58848485       0.00000000       0.00000000      -0.01419590
2
Properties=species:S:1:pos:R:3:forces:R:3 energy=-1.8655791044736942 pbc="F F F"
Cu       0.00000000       0.00000000       0.00000000       0.00000000       0.00000000       0.01224435
Cu       0.00000000       0.00000000       5.64727273       0.00000000       0.00000000      -0.01224435
2
Properties=species:S:1:pos:R:3:forces:R:3 energy=-1.8649159437272402 pbc="F F F"
Cu       0.00000000       0.00000000       0.00000000       0.00000000       0.00000000       0.01038391
Cu       0.00000000       0.00000000       5.70606061       0.00000000       0.00000000      -0.01038391
2
Properties=species:S:1:pos:R:3:forces:R:3 energy=-1.8643538765341898 pbc="F F F"
Cu       0.00000000       0.00000000       0.00000000       0.00000000       0.00000000       0.00876517
Cu       0.00000000       0.00000000       5.76484848       0.00000000       0.00000000      -0.00876517
2
Properties=species:S:1:pos:R:3:forces:R:3 energy=-1.863878064161615 pbc="F F F"
Cu       0.00000000       0.00000000       0.00000000       0.00000000       0.00000000       0.00748996
Cu       0.00000000       0.00000000       5.82363636       0.00000000       0.00000000      -0.00748996
2
Properties=species:S:1:pos:R:3:forces:R:3 energy=-1.8634660741200553 pbc="F F F"
Cu       0.00000000       0.00000000       0.00000000       0.00000000       0.00000000       0.00658488
Cu       0.00000000       0.00000000       5.88242424       0.00000000       0.00000000      -0.00658488
2
Properties=species:S:1:pos:R:3:forces:R:3 energy=-1.863097915918596 pbc="F F F"
Cu       0.00000000       0.00000000       0.00000000       0.00000000       0.00000000       0.00599708
Cu       0.00000000       0.00000000       5.94121212       0.00000000       0.00000000      -0.00599708
2
Properties=species:S:1:pos:R:3:forces:R:3 energy=-1.8627569757322506 pbc="F F F"
Cu       0.00000000       0.00000000       0.00000000       0.00000000       0.00000000       0.00560382
Cu       0.00000000       0.00000000       6.00000000       0.00000000       0.00000000      -0.00560382
