2
Properties=species:S:1:pos:R:3:forces:R:3 energy=-1605638.8670337447 pbc="F F F"
Dy       0.00000000       0.00000000       0.00000000       0.00000000       0.00000000 17783800.00000000
Dy       0.00000000       0.00000000       0.18000000       0.00000000       0.00000000 -17783800.00000000
2
Properties=species:S:1:pos:R:3:forces:R:3 energy=-728669.6170337447 pbc="F F F"
Dy       0.00000000       0.00000000       0.00000000       0.00000000       0.00000000 11706288.00000000
Dy       0.00000000       0.00000000       0.23878788       0.00000000       0.00000000 -11706288.00000000
2
Properties=species:S:1:pos:R:3:forces:R:3 energy=-228537.86703374473 pbc="F F F"
Dy       0.00000000       0.00000000       0.00000000       0.00000000       0.00000000 6001557.50000000
Dy       0.00000000       0.00000000       0.29757576       0.00000000       0.00000000 -6001557.50000000
2
Properties=species:S:1:pos:R:3:forces:R:3 energy=-31345.29086185706 pbc="F F F"
Dy       0.00000000       0.00000000       0.00000000       0.00000000       0.00000000  441683.84375000
Dy       0.00000000       0.00000000       0.35636364       0.00000000       0.00000000 -441683.84375000
2
Properties=species:S:1:pos:R:3:forces:R:3 energy=-13401.219572794558 pbc="F F F"
Dy       0.00000000       0.00000000       0.00000000       0.00000000       0.00000000  179676.40625000
Dy       0.00000000       0.00000000       0.41515152       0.00000000       0.00000000 -179676.40625000
2
Properties=species:S:1:pos:R:3:forces:R:3 energy=-6057.630705594386 pbc="F F F"
Dy       0.00000000       0.00000000       0.00000000       0.00000000       0.00000000  104167.79687500
Dy       0.00000000       0.00000000       0.47393939       0.00000000       0.00000000 -104167.79687500
2
Properties=species:S:1:pos:R:3:forces:R:3 energy=-2913.537443862965 pbc="F F F"
Dy       0.00000000       0.00000000       0.00000000       0.00000000       0.00000000     705.58319092
Dy       0.00000000       0.00000000       0.53272727       0.00000000       0.00000000    -705.58319092
2
Properties=species:S:1:pos:R:3:forces:R:3 energy=5693.862458518798 pbc="F F F"
Dy       0.00000000       0.00000000       0.00000000       0.00000000       0.00000000   34911.88671875
Dy       0.00000000       0.00000000       0.59151515       0.00000000       0.00000000  -34911.88671875
2
Properties=species:S:1:pos:R:3:forces:R:3 energy=4364.637360913233 pbc="F F F"
Dy       0.00000000       0.00000000       0.00000000       0.00000000       0.00000000  -38551.43359375
Dy       0.00000000       0.00000000       0.65030303       0.00000000       0.00000000   38551.43359375
2
Properties=species:S:1:pos:R:3:forces:R:3 energy=2459.81656019534 pbc="F F F"
Dy       0.00000000       0.00000000       0.00000000       0.00000000       0.00000000  -21658.55273438
Dy       0.00000000       0.00000000       0.70909091       0.00000000       0.00000000   21658.55273438
2
Properties=species:S:1:pos:R:3:forces:R:3 energy=1390.7363601140692 pbc="F F F"
Dy       0.00000000       0.00000000       0.00000000       0.00000000       0.00000000  -14196.22070312
Dy       0.00000000       0.00000000       0.76787879       0.00000000       0.00000000   14196.22070312
2
Properties=species:S:1:pos:R:3:forces:R:3 energy=770.3393876225459 pbc="F F F"
Dy       0.00000000       0.00000000       0.00000000       0.00000000       0.00000000   -7807.16845703
Dy       0.00000000       0.00000000       0.82666667       0.00000000       0.00000000    7807.16845703
2
Properties=species:S:1:pos:R:3:forces:R:3 energy=397.1038837382524 pbc="F F F"
Dy       0.00000000       0.00000000       0.00000000       0.00000000       0.00000000   -4681.32421875
Dy       0.00000000       0.00000000       0.88545455       0.00000000       0.00000000    4681.32421875
2
Properties=species:S:1:pos:R:3:forces:R:3 energy=203.5157493020809 pbc="F F F"
Dy       0.00000000       0.00000000       0.00000000       0.00000000       0.00000000   -2408.99267578
Dy       0.00000000       0.00000000       0.94424242       0.00000000       0.00000000    2408.99267578
2
Properties=species:S:1:pos:R:3:forces:R:3 energy=104.28880581386332 pbc="F F F"
Dy       0.00000000       0.00000000       0.00000000       0.00000000       0.00000000   -1120.19531250
Dy       0.00000000       0.00000000       1.00303030       0.00000000       0.00000000    1120.19531250
2
Properties=species:S:1:pos:R:3:forces:R:3 energy=61.4133563131504 pbc="F F F"
Dy       0.00000000       0.00000000       0.00000000       0.00000000       0.00000000    -458.11334229
Dy       0.00000000       0.00000000       1.06181818       0.00000000       0.00000000     458.11334229
2
Properties=species:S:1:pos:R:3:forces:R:3 energy=40.83437002787342 pbc="F F F"
Dy       0.00000000       0.00000000       0.00000000       0.00000000       0.00000000    -249.53964233
Dy       0.00000000       0.00000000       1.12060606       0.00000000       0.00000000     249.53964233
2
Properties=species:S:1:pos:R:3:forces:R:3 energy=29.65910678442631 pbc="F F F"
Dy       0.00000000       0.00000000       0.00000000       0.00000000       0.00000000    -140.19682312
Dy       0.00000000       0.00000000       1.17939394       0.00000000       0.00000000     140.19682312
2
Properties=species:S:1:pos:R:3:forces:R:3 energy=22.717576081272153 pbc="F F F"
Dy       0.00000000       0.00000000       0.00000000       0.00000000       0.00000000     -87.45022583
Dy       0.00000000       0.00000000       1.23818182       0.00000000       0.00000000      87.45022583
2
Properties=species:S:1:pos:R:3:forces:R:3 energy=18.412318214019155 pbc="F F F"
Dy       0.00000000       0.00000000       0.00000000       0.00000000       0.00000000     -56.07526398
Dy       0.00000000       0.00000000       1.29696970       0.00000000       0.00000000      56.07526398
2
Properties=species:S:1:pos:R:3:forces:R:3 energy=16.012387658865556 pbc="F F F"
Dy       0.00000000       0.00000000       0.00000000       0.00000000       0.00000000     -27.13905907
Dy       0.00000000       0.00000000       1.35575758       0.00000000       0.00000000      27.13905907
2
Properties=species:S:1:pos:R:3:forces:R:3 energy=14.64697880216779 pbc="F F F"
Dy       0.00000000       0.00000000       0.00000000       0.00000000       0.00000000     -23.00079155
Dy       0.00000000       0.00000000       1.41454545       0.00000000       0.00000000      23.00079155
2
Properties=species:S:1:pos:R:3:forces:R:3 energy=13.319593637386017 pbc="F F F"
Dy       0.00000000       0.00000000       0.00000000       0.00000000       0.00000000     -18.59947586
Dy       0.00000000       0.00000000       1.47333333       0.00000000       0.00000000      18.59947586
2
Properties=species:S:1:pos:R:3:forces:R:3 energy=12.569952851854016 pbc="F F F"
Dy       0.00000000       0.00000000       0.00000000       0.00000000       0.00000000      -9.57703972
Dy       0.00000000       0.00000000       1.53212121       0.00000000       0.00000000       9.57703972
2
Properties=species:S:1:pos:R:3:forces:R:3 energy=11.989441459979986 pbc="F F F"
Dy       0.00000000       0.00000000       0.00000000       0.00000000       0.00000000     -11.12086201
Dy       0.00000000       0.00000000       1.59090909       0.00000000       0.00000000      11.12086201
2
Properties=species:S:1:pos:R:3:forces:R:3 energy=11.254910924416265 pbc="F F F"
Dy       0.00000000       0.00000000       0.00000000       0.00000000       0.00000000     -13.72647858
Dy       0.00000000       0.00000000       1.64969697       0.00000000       0.00000000      13.72647858
2
Properties=species:S:1:pos:R:3:forces:R:3 energy=10.287757703396633 pbc="F F F"
Dy       0.00000000       0.00000000       0.00000000       0.00000000       0.00000000     -19.55599213
Dy       0.00000000       0.00000000       1.70848485       0.00000000       0.00000000      19.55599213
2
Properties=species:S:1:pos:R:3:forces:R:3 energy=9.052057088162686 pbc="F F F"
Dy       0.00000000       0.00000000       0.00000000       0.00000000       0.00000000     -21.77877617
Dy       0.00000000       0.00000000       1.76727273       0.00000000       0.00000000      21.77877617
2
Properties=species:S:1:pos:R:3:forces:R:3 energy=7.740060575598395 pbc="F F F"
Dy       0.00000000       0.00000000       0.00000000       0.00000000       0.00000000     -22.58626366
Dy       0.00000000       0.00000000       1.82606061       0.00000000       0.00000000      22.58626366
2
Properties=species:S:1:pos:R:3:forces:R:3 energy=6.458951875550432 pbc="F F F"
Dy       0.00000000       0.00000000       0.00000000       0.00000000       0.00000000     -20.90501213
Dy       0.00000000       0.00000000       1.88484848       0.00000000       0.00000000      20.90501213
2
Properties=species:S:1:pos:R:3:forces:R:3 energy=5.275892890202183 pbc="F F F"
Dy       0.00000000       0.00000000       0.00000000       0.00000000       0.00000000     -19.26064301
Dy       0.00000000       0.00000000       1.94363636       0.00000000       0.00000000      19.26064301
2
Properties=species:S:1:pos:R:3:forces:R:3 energy=4.204429964339962 pbc="F F F"
Dy       0.00000000       0.00000000       0.00000000       0.00000000       0.00000000     -17.16000557
Dy       0.00000000       0.00000000       2.00242424       0.00000000       0.00000000      17.16000557
2
Properties=species:S:1:pos:R:3:forces:R:3 energy=3.2552980362078956 pbc="F F F"
Dy       0.00000000       0.00000000       0.00000000       0.00000000       0.00000000     -15.17211246
Dy       0.00000000       0.00000000       2.06121212       0.00000000       0.00000000      15.17211246
2
Properties=species:S:1:pos:R:3:forces:R:3 energy=2.423195145444444 pbc="F F F"
Dy       0.00000000       0.00000000       0.00000000       0.00000000       0.00000000     -13.07114506
Dy       0.00000000       0.00000000       2.12000000       0.00000000       0.00000000      13.07114506
2
Properties=species:S:1:pos:R:3:forces:R:3 energy=1.7142157524404078 pbc="F F F"
Dy       0.00000000       0.00000000       0.00000000       0.00000000       0.00000000     -11.18714046
Dy       0.00000000       0.00000000       2.17878788       0.00000000       0.00000000      11.18714046
2
Properties=species:S:1:pos:R:3:forces:R:3 energy=1.098588584580339 pbc="F F F"
Dy       0.00000000       0.00000000       0.00000000       0.00000000       0.00000000      -9.76072216
Dy       0.00000000       0.00000000       2.23757576       0.00000000       0.00000000       9.76072216
2
Properties=species:S:1:pos:R:3:forces:R:3 energy=0.5649521869517139 pbc="F F F"
Dy       0.00000000       0.00000000       0.00000000       0.00000000       0.00000000      -8.40116882
Dy       0.00000000       0.00000000       2.29636364       0.00000000       0.00000000       8.40116882
2
Properties=species:S:1:pos:R:3:forces:R:3 energy=0.11193010007736036 pbc="F F F"
Dy       0.00000000       0.00000000       0.00000000       0.00000000       0.00000000      -7.02462435
Dy       0.00000000       0.00000000       2.35515152       0.00000000       0.00000000       7.02462435
2
Properties=species:S:1:pos:R:3:forces:R:3 energy=-0.266693002973608 pbc="F F F"
Dy       0.00000000       0.00000000       0.00000000       0.00000000       0.00000000      -5.90868044
Dy       0.00000000       0.00000000       2.41393939       0.00000000       0.00000000       5.90868044
2
Properties=species:S:1:pos:R:3:forces:R:3 energy=-0.587311892757666 pbc="F F F"
Dy       0.00000000       0.00000000       0.00000000       0.00000000       0.00000000      -5.02824640
Dy       0.00000000       0.00000000       2.47272727       0.00000000       0.00000000       5.02824640
2
Properties=species:S:1:pos:R:3:forces:R:3 energy=-0.8599536184067785 pbc="F F F"
Dy       0.00000000       0.00000000       0.00000000       0.00000000       0.00000000      -4.25948620
Dy       0.00000000       0.00000000       2.53151515       0.00000000       0.00000000       4.25948620
2
Properties=species:S:1:pos:R:3:forces:R:3 energy=-1.0913501322342634 pbc="F F F"
Dy       0.00000000       0.00000000       0.00000000       0.00000000       0.00000000      -3.65544415
Dy       0.00000000       0.00000000       2.59030303       0.00000000       0.00000000       3.65544415
2
Properties=species:S:1:pos:R:3:forces:R:3 energy=-1.294542870488205 pbc="F F F"
Dy       0.00000000       0.00000000       0.00000000       0.00000000       0.00000000      -3.28638744
Dy       0.00000000       0.00000000       2.64909091       0.00000000       0.00000000       3.28638744
2
Properties=species:S:1:pos:R:3:forces:R:3 energy=-1.4792506174131743 pbc="F F F"
Dy       0.00000000       0.00000000       0.00000000       0.00000000       0.00000000      -2.99611807
Dy       0.00000000       0.00000000       2.70787879       0.00000000       0.00000000       2.99611807
2
Properties=species:S:1:pos:R:3:forces:R:3 energy=-1.6458536136207407 pbc="F F F"
Dy       0.00000000       0.00000000       0.00000000       0.00000000       0.00000000      -2.66216087
Dy       0.00000000       0.00000000       2.76666667       0.00000000       0.00000000       2.66216087
2
Properties=species:S:1:pos:R:3:forces:R:3 energy=-1.7915219812882948 pbc="F F F"
Dy       0.00000000       0.00000000       0.00000000       0.00000000       0.00000000      -2.29171038
Dy       0.00000000       0.00000000       2.82545455       0.00000000       0.00000000       2.29171038
2
Properties=species:S:1:pos:R:3:forces:R:3 energy=-1.915543851879658 pbc="F F F"
Dy       0.00000000       0.00000000       0.00000000       0.00000000       0.00000000      -1.93265831
Dy       0.00000000       0.00000000       2.88424242       0.00000000       0.00000000       1.93265831
2
Properties=species:S:1:pos:R:3:forces:R:3 energy=-2.019516037651919 pbc="F F F"
Dy       0.00000000       0.00000000       0.00000000       0.00000000       0.00000000      -1.61130059
Dy       0.00000000       0.00000000       2.94303030       0.00000000       0.00000000       1.61130059
2
Properties=species:S:1:pos:R:3:forces:R:3 energy=-2.105668666635991 pbc="F F F"
Dy       0.00000000       0.00000000       0.00000000       0.00000000       0.00000000      -1.32407939
Dy       0.00000000       0.00000000       3.00181818       0.00000000       0.00000000       1.32407939
2
Properties=species:S:1:pos:R:3:forces:R:3 energy=-2.1756325919247166 pbc="F F F"
Dy       0.00000000       0.00000000       0.00000000       0.00000000       0.00000000      -1.05976987
Dy       0.00000000       0.00000000       3.06060606       0.00000000       0.00000000       1.05976987
2
Properties=species:S:1:pos:R:3:forces:R:3 energy=-2.230781275915816 pbc="F F F"
Dy       0.00000000       0.00000000       0.00000000       0.00000000       0.00000000      -0.82172036
Dy       0.00000000       0.00000000       3.11939394       0.00000000       0.00000000       0.82172036
2
Properties=species:S:1:pos:R:3:forces:R:3 energy=-2.272928613814438 pbc="F F F"
Dy       0.00000000       0.00000000       0.00000000       0.00000000       0.00000000      -0.61814880
Dy       0.00000000       0.00000000       3.17818182       0.00000000       0.00000000       0.61814880
2
Properties=species:S:1:pos:R:3:forces:R:3 energy=-2.304147722841754 pbc="F F F"
Dy       0.00000000       0.00000000       0.00000000       0.00000000       0.00000000      -0.44930425
Dy       0.00000000       0.00000000       3.23696970       0.00000000       0.00000000       0.44930425
2
Properties=species:S:1:pos:R:3:forces:R:3 energy=-2.3263303827146427 pbc="F F F"
Dy       0.00000000       0.00000000       0.00000000       0.00000000       0.00000000      -0.30969724
Dy       0.00000000       0.00000000       3.29575758       0.00000000       0.00000000       0.30969724
2
Properties=species:S:1:pos:R:3:forces:R:3 energy=-2.341021185013657 pbc="F F F"
Dy       0.00000000       0.00000000       0.00000000       0.00000000       0.00000000      -0.19377641
Dy       0.00000000       0.00000000       3.35454545       0.00000000       0.00000000       0.19377641
2
Properties=species:S:1:pos:R:3:forces:R:3 energy=-2.349510904567012 pbc="F F F"
Dy       0.00000000       0.00000000       0.00000000       0.00000000       0.00000000      -0.09820458
Dy       0.00000000       0.00000000       3.41333333       0.00000000       0.00000000       0.09820458
2
Properties=species:S:1:pos:R:3:forces:R:3 energy=-2.352884221180269 pbc="F F F"
Dy       0.00000000       0.00000000       0.00000000       0.00000000       0.00000000      -0.01861225
Dy       0.00000000       0.00000000       3.47212121       0.00000000       0.00000000       0.01861225
2
Properties=species:S:1:pos:R:3:forces:R:3 energy=-2.3518757148145606 pbc="F F F"
Dy       0.00000000       0.00000000       0.00000000       0.00000000       0.00000000       0.05205918
Dy       0.00000000       0.00000000       3.53090909       0.00000000       0.00000000      -0.05205918
2
Properties=species:S:1:pos:R:3:forces:R:3 energy=-2.3468146031613917 pbc="F F F"
Dy       0.00000000       0.00000000       0.00000000       0.00000000       0.00000000       0.11983728
Dy       0.00000000       0.00000000       3.58969697       0.00000000       0.00000000      -0.11983728
2
Properties=species:S:1:pos:R:3:forces:R:3 energy=-2.33779928938512 pbc="F F F"
Dy       0.00000000       0.00000000       0.00000000       0.00000000       0.00000000       0.18664107
Dy       0.00000000       0.00000000       3.64848485       0.00000000       0.00000000      -0.18664107
2
Properties=species:S:1:pos:R:3:forces:R:3 energy=-2.3249138715353563 pbc="F F F"
Dy       0.00000000       0.00000000       0.00000000       0.00000000       0.00000000       0.25121716
Dy       0.00000000       0.00000000       3.70727273       0.00000000       0.00000000      -0.25121716
2
Properties=species:S:1:pos:R:3:forces:R:3 energy=-2.3083462207641614 pbc="F F F"
Dy       0.00000000       0.00000000       0.00000000       0.00000000       0.00000000       0.31157166
Dy       0.00000000       0.00000000       3.76606061       0.00000000       0.00000000      -0.31157166
2
Properties=species:S:1:pos:R:3:forces:R:3 energy=-2.2883911337886285 pbc="F F F"
Dy       0.00000000       0.00000000       0.00000000       0.00000000       0.00000000       0.36629879
Dy       0.00000000       0.00000000       3.82484848       0.00000000       0.00000000      -0.36629879
2
Properties=species:S:1:pos:R:3:forces:R:3 energy=-2.2654034127800546 pbc="F F F"
Dy       0.00000000       0.00000000       0.00000000       0.00000000       0.00000000       0.41467401
Dy       0.00000000       0.00000000       3.88363636       0.00000000       0.00000000      -0.41467401
2
Properties=species:S:1:pos:R:3:forces:R:3 energy=-2.239766520824382 pbc="F F F"
Dy       0.00000000       0.00000000       0.00000000       0.00000000       0.00000000       0.45638028
Dy       0.00000000       0.00000000       3.94242424       0.00000000       0.00000000      -0.45638028
2
Properties=species:S:1:pos:R:3:forces:R:3 energy=-2.2118744874527665 pbc="F F F"
Dy       0.00000000       0.00000000       0.00000000       0.00000000       0.00000000       0.49138507
Dy       0.00000000       0.00000000       4.00121212       0.00000000       0.00000000      -0.49138507
2
Properties=species:S:1:pos:R:3:forces:R:3 energy=-2.1821166625238004 pbc="F F F"
Dy       0.00000000       0.00000000       0.00000000       0.00000000       0.00000000       0.51997399
Dy       0.00000000       0.00000000       4.06000000       0.00000000       0.00000000      -0.51997399
2
Properties=species:S:1:pos:R:3:forces:R:3 energy=-2.1508567987449974 pbc="F F F"
Dy       0.00000000       0.00000000       0.00000000       0.00000000       0.00000000       0.54266113
Dy       0.00000000       0.00000000       4.11878788       0.00000000       0.00000000      -0.54266113
2
Properties=species:S:1:pos:R:3:forces:R:3 energy=-2.118420691920543 pbc="F F F"
Dy       0.00000000       0.00000000       0.00000000       0.00000000       0.00000000       0.55991876
Dy       0.00000000       0.00000000       4.17757576       0.00000000       0.00000000      -0.55991876
2
Properties=species:S:1:pos:R:3:forces:R:3 energy=-2.085126723871998 pbc="F F F"
Dy       0.00000000       0.00000000       0.00000000       0.00000000       0.00000000       0.57192367
Dy       0.00000000       0.00000000       4.23636364       0.00000000       0.00000000      -0.57192367
2
Properties=species:S:1:pos:R:3:forces:R:3 energy=-2.051281157423159 pbc="F F F"
Dy       0.00000000       0.00000000       0.00000000       0.00000000       0.00000000       0.57852733
Dy       0.00000000       0.00000000       4.29515152       0.00000000       0.00000000      -0.57852733
2
Properties=species:S:1:pos:R:3:forces:R:3 energy=-2.0172163594004453 pbc="F F F"
Dy       0.00000000       0.00000000       0.00000000       0.00000000       0.00000000       0.57948643
Dy       0.00000000       0.00000000       4.35393939       0.00000000       0.00000000      -0.57948643
2
Properties=species:S:1:pos:R:3:forces:R:3 energy=-1.9832611923795822 pbc="F F F"
Dy       0.00000000       0.00000000       0.00000000       0.00000000       0.00000000       0.57474703
Dy       0.00000000       0.00000000       4.41272727       0.00000000       0.00000000      -0.57474703
2
Properties=species:S:1:pos:R:3:forces:R:3 energy=-1.949745013116549 pbc="F F F"
Dy       0.00000000       0.00000000       0.00000000       0.00000000       0.00000000       0.56461912
Dy       0.00000000       0.00000000       4.47151515       0.00000000       0.00000000      -0.56461912
2
Properties=species:S:1:pos:R:3:forces:R:3 energy=-1.916968973619069 pbc="F F F"
Dy       0.00000000       0.00000000       0.00000000       0.00000000       0.00000000       0.54978454
Dy       0.00000000       0.00000000       4.53030303       0.00000000       0.00000000      -0.54978454
2
Properties=species:S:1:pos:R:3:forces:R:3 energy=-1.8851784849686728 pbc="F F F"
Dy       0.00000000       0.00000000       0.00000000       0.00000000       0.00000000       0.53117585
Dy       0.00000000       0.00000000       4.58909091       0.00000000       0.00000000      -0.53117585
2
Properties=species:S:1:pos:R:3:forces:R:3 energy=-1.8545671080456978 pbc="F F F"
Dy       0.00000000       0.00000000       0.00000000       0.00000000       0.00000000       0.50984472
Dy       0.00000000       0.00000000       4.64787879       0.00000000       0.00000000      -0.50984472
2
Properties=species:S:1:pos:R:3:forces:R:3 energy=-1.8252649763889595 pbc="F F F"
Dy       0.00000000       0.00000000       0.00000000       0.00000000       0.00000000       0.48685727
Dy       0.00000000       0.00000000       4.70666667       0.00000000       0.00000000      -0.48685727
2
Properties=species:S:1:pos:R:3:forces:R:3 energy=-1.7973370979233811 pbc="F F F"
Dy       0.00000000       0.00000000       0.00000000       0.00000000       0.00000000       0.46326628
Dy       0.00000000       0.00000000       4.76545455       0.00000000       0.00000000      -0.46326628
2
Properties=species:S:1:pos:R:3:forces:R:3 energy=-1.770786133619567 pbc="F F F"
Dy       0.00000000       0.00000000       0.00000000       0.00000000       0.00000000       0.44005895
Dy       0.00000000       0.00000000       4.82424242       0.00000000       0.00000000      -0.44005895
2
Properties=species:S:1:pos:R:3:forces:R:3 energy=-1.7455724753396011 pbc="F F F"
Dy       0.00000000       0.00000000       0.00000000       0.00000000       0.00000000       0.41810215
Dy       0.00000000       0.00000000       4.88303030       0.00000000       0.00000000      -0.41810215
2
Properties=species:S:1:pos:R:3:forces:R:3 energy=-1.7215931699674225 pbc="F F F"
Dy       0.00000000       0.00000000       0.00000000       0.00000000       0.00000000       0.39798200
Dy       0.00000000       0.00000000       4.94181818       0.00000000       0.00000000      -0.39798200
2
Properties=species:S:1:pos:R:3:forces:R:3 energy=-1.6987401125490578 pbc="F F F"
Dy       0.00000000       0.00000000       0.00000000       0.00000000       0.00000000       0.37989831
Dy       0.00000000       0.00000000       5.00060606       0.00000000       0.00000000      -0.37989831
2
Properties=species:S:1:pos:R:3:forces:R:3 energy=-1.6768915202445733 pbc="F F F"
Dy       0.00000000       0.00000000       0.00000000       0.00000000       0.00000000       0.36351848
Dy       0.00000000       0.00000000       5.05939394       0.00000000       0.00000000      -0.36351848
2
Properties=species:S:1:pos:R:3:forces:R:3 energy=-1.6559794721421432 pbc="F F F"
Dy       0.00000000       0.00000000       0.00000000       0.00000000       0.00000000       0.34800756
Dy       0.00000000       0.00000000       5.11818182       0.00000000       0.00000000      -0.34800756
2
Properties=species:S:1:pos:R:3:forces:R:3 energy=-1.6359831765170358 pbc="F F F"
Dy       0.00000000       0.00000000       0.00000000       0.00000000       0.00000000       0.33211520
Dy       0.00000000       0.00000000       5.17696970       0.00000000       0.00000000      -0.33211520
2
Properties=species:S:1:pos:R:3:forces:R:3 energy=-1.6169652738120814 pbc="F F F"
Dy       0.00000000       0.00000000       0.00000000       0.00000000       0.00000000       0.31444815
Dy       0.00000000       0.00000000       5.23575758       0.00000000       0.00000000      -0.31444815
2
Properties=species:S:1:pos:R:3:forces:R:3 energy=-1.5990715642049653 pbc="F F F"
Dy       0.00000000       0.00000000       0.00000000       0.00000000       0.00000000       0.29376182
Dy       0.00000000       0.00000000       5.29454545       0.00000000       0.00000000      -0.29376182
2
Properties=species:S:1:pos:R:3:forces:R:3 energy=-1.5825024734064692 pbc="F F F"
Dy       0.00000000       0.00000000       0.00000000       0.00000000       0.00000000       0.26927435
Dy       0.00000000       0.00000000       5.35333333       0.00000000       0.00000000      -0.26927435
2
Properties=species:S:1:pos:R:3:forces:R:3 energy=-1.5674910104452395 pbc="F F F"
Dy       0.00000000       0.00000000       0.00000000       0.00000000       0.00000000       0.24088763
Dy       0.00000000       0.00000000       5.41212121       0.00000000       0.00000000      -0.24088763
2
Properties=species:S:1:pos:R:3:forces:R:3 energy=-1.5542453191256096 pbc="F F F"
Dy       0.00000000       0.00000000       0.00000000       0.00000000       0.00000000       0.20926671
Dy       0.00000000       0.00000000       5.47090909       0.00000000       0.00000000      -0.20926671
2
Properties=species:S:1:pos:R:3:forces:R:3 energy=-1.5429181984633389 pbc="F F F"
Dy       0.00000000       0.00000000       0.00000000       0.00000000       0.00000000       0.17581044
Dy       0.00000000       0.00000000       5.52969697       0.00000000       0.00000000      -0.17581044
2
Properties=species:S:1:pos:R:3:forces:R:3 energy=-1.5335688860208705 pbc="F F F"
Dy       0.00000000       0.00000000       0.00000000       0.00000000       0.00000000       0.14241046
Dy       0.00000000       0.00000000       5.58848485       0.00000000       0.00000000      -0.14241046
2
Properties=species:S:1:pos:R:3:forces:R:3 energy=-1.5261352176184713 pbc="F F F"
Dy       0.00000000       0.00000000       0.00000000       0.00000000       0.00000000       0.11120060
Dy       0.00000000       0.00000000       5.64727273       0.00000000       0.00000000      -0.11120060
2
Properties=species:S:1:pos:R:3:forces:R:3 energy=-1.5204164485252463 pbc="F F F"
Dy       0.00000000       0.00000000       0.00000000       0.00000000       0.00000000       0.08414520
Dy       0.00000000       0.00000000       5.70606061       0.00000000       0.00000000      -0.08414520
2
Properties=species:S:1:pos:R:3:forces:R:3 energy=-1.5161256421901 pbc="F F F"
Dy       0.00000000       0.00000000       0.00000000       0.00000000       0.00000000       0.06273572
Dy       0.00000000       0.00000000       5.76484848       0.00000000       0.00000000      -0.06273572
2
Properties=species:S:1:pos:R:3:forces:R:3 energy=-1.5129106003915411 pbc="F F F"
Dy       0.00000000       0.00000000       0.00000000       0.00000000       0.00000000       0.04771497
Dy       0.00000000       0.00000000       5.82363636       0.00000000       0.00000000      -0.04771497
2
Properties=species:S:1:pos:R:3:forces:R:3 energy=-1.5103986099028242 pbc="F F F"
Dy       0.00000000       0.00000000       0.00000000       0.00000000       0.00000000       0.03882611
Dy       0.00000000       0.00000000       5.88242424       0.00000000       0.00000000      -0.03882611
2
Properties=species:S:1:pos:R:3:forces:R:3 energy=-1.5082508209349157 pbc="F F F"
Dy       0.00000000       0.00000000       0.00000000       0.00000000       0.00000000       0.03479704
Dy       0.00000000       0.00000000       5.94121212       0.00000000       0.00000000      -0.03479704
2
Properties=species:S:1:pos:R:3:forces:R:3 energy=-1.5062508723236554 pbc="F F F"
Dy       0.00000000       0.00000000       0.00000000       0.00000000       0.00000000       0.03349671
Dy       0.00000000       0.00000000       6.00000000       0.00000000       0.00000000      -0.03349671
