2
Properties=species:S:1:pos:R:3:forces:R:3 energy=-469468.69272518484 pbc="F F F"
Eu       0.00000000       0.00000000       0.00000000       0.00000000       0.00000000 5508001.50000000
Eu       0.00000000       0.00000000       0.18000000       0.00000000       0.00000000 -5508001.50000000
2
Properties=species:S:1:pos:R:3:forces:R:3 energy=-199830.70835018487 pbc="F F F"
Eu       0.00000000       0.00000000       0.00000000       0.00000000       0.00000000 3538796.00000000
Eu       0.00000000       0.00000000       0.23878788       0.00000000       0.00000000 -3538796.00000000
2
Properties=species:S:1:pos:R:3:forces:R:3 energy=-54468.57944393487 pbc="F F F"
Eu       0.00000000       0.00000000       0.00000000       0.00000000       0.00000000 1500675.75000000
Eu       0.00000000       0.00000000       0.29757576       0.00000000       0.00000000 -1500675.75000000
2
Properties=species:S:1:pos:R:3:forces:R:3 energy=-5879.199561119198 pbc="F F F"
Eu       0.00000000       0.00000000       0.00000000       0.00000000       0.00000000  312809.75000000
Eu       0.00000000       0.00000000       0.35636364       0.00000000       0.00000000 -312809.75000000
2
Properties=species:S:1:pos:R:3:forces:R:3 energy=-163.03163814556544 pbc="F F F"
Eu       0.00000000       0.00000000       0.00000000       0.00000000       0.00000000   16622.53906250
Eu       0.00000000       0.00000000       0.41515152       0.00000000       0.00000000  -16622.53906250
2
Properties=species:S:1:pos:R:3:forces:R:3 energy=-14.503508564760905 pbc="F F F"
Eu       0.00000000       0.00000000       0.00000000       0.00000000       0.00000000      57.73818970
Eu       0.00000000       0.00000000       0.47393939       0.00000000       0.00000000     -57.73818970
2
Properties=species:S:1:pos:R:3:forces:R:3 energy=-13.64091490760739 pbc="F F F"
Eu       0.00000000       0.00000000       0.00000000       0.00000000       0.00000000     -23.05012131
Eu       0.00000000       0.00000000       0.53272727       0.00000000       0.00000000      23.05012131
2
Properties=species:S:1:pos:R:3:forces:R:3 energy=-16.092848762050554 pbc="F F F"
Eu       0.00000000       0.00000000       0.00000000       0.00000000       0.00000000     -55.19056320
Eu       0.00000000       0.00000000       0.59151515       0.00000000       0.00000000      55.19056320
2
Properties=species:S:1:pos:R:3:forces:R:3 energy=-20.70516488097106 pbc="F F F"
Eu       0.00000000       0.00000000       0.00000000       0.00000000       0.00000000     -72.93281555
Eu       0.00000000       0.00000000       0.65030303       0.00000000       0.00000000      72.93281555
2
Properties=species:S:1:pos:R:3:forces:R:3 energy=-23.569027853297136 pbc="F F F"
Eu       0.00000000       0.00000000       0.00000000       0.00000000       0.00000000     -22.52695465
Eu       0.00000000       0.00000000       0.70909091       0.00000000       0.00000000      22.52695465
2
Properties=species:S:1:pos:R:3:forces:R:3 energy=-24.815352360803487 pbc="F F F"
Eu       0.00000000       0.00000000       0.00000000       0.00000000       0.00000000     -15.66564083
Eu       0.00000000       0.00000000       0.76787879       0.00000000       0.00000000      15.66564083
2
Properties=species:S:1:pos:R:3:forces:R:3 energy=-25.74820410783581 pbc="F F F"
Eu       0.00000000       0.00000000       0.00000000       0.00000000       0.00000000     -19.47238159
Eu       0.00000000       0.00000000       0.82666667       0.00000000       0.00000000      19.47238159
2
Properties=species:S:1:pos:R:3:forces:R:3 energy=-26.641266636032103 pbc="F F F"
Eu       0.00000000       0.00000000       0.00000000       0.00000000       0.00000000     -11.63701820
Eu       0.00000000       0.00000000       0.88545455       0.00000000       0.00000000      11.63701820
2
Properties=species:S:1:pos:R:3:forces:R:3 energy=-26.902073584686597 pbc="F F F"
Eu       0.00000000       0.00000000       0.00000000       0.00000000       0.00000000       1.93771994
Eu       0.00000000       0.00000000       0.94424242       0.00000000       0.00000000      -1.93771994
2
Properties=species:S:1:pos:R:3:forces:R:3 energy=-26.39448602828021 pbc="F F F"
Eu       0.00000000       0.00000000       0.00000000       0.00000000       0.00000000      11.65259552
Eu       0.00000000       0.00000000       1.00303030       0.00000000       0.00000000     -11.65259552
2
Properties=species:S:1:pos:R:3:forces:R:3 energy=-25.68958321145985 pbc="F F F"
Eu       0.00000000       0.00000000       0.00000000       0.00000000       0.00000000      13.23447227
Eu       0.00000000       0.00000000       1.06181818       0.00000000       0.00000000     -13.23447227
2
Properties=species:S:1:pos:R:3:forces:R:3 energy=-24.74449937154824 pbc="F F F"
Eu       0.00000000       0.00000000       0.00000000       0.00000000       0.00000000      20.12195015
Eu       0.00000000       0.00000000       1.12060606       0.00000000       0.00000000     -20.12195015
2
Properties=species:S:1:pos:R:3:forces:R:3 energy=-23.492868297027545 pbc="F F F"
Eu       0.00000000       0.00000000       0.00000000       0.00000000       0.00000000      22.12228966
Eu       0.00000000       0.00000000       1.17939394       0.00000000       0.00000000     -22.12228966
2
Properties=species:S:1:pos:R:3:forces:R:3 energy=-22.058488345587815 pbc="F F F"
Eu       0.00000000       0.00000000       0.00000000       0.00000000       0.00000000      27.14454079
Eu       0.00000000       0.00000000       1.23818182       0.00000000       0.00000000     -27.14454079
2
Properties=species:S:1:pos:R:3:forces:R:3 energy=-20.320052122007414 pbc="F F F"
Eu       0.00000000       0.00000000       0.00000000       0.00000000       0.00000000      31.75419807
Eu       0.00000000       0.00000000       1.29696970       0.00000000       0.00000000     -31.75419807
2
Properties=species:S:1:pos:R:3:forces:R:3 energy=-18.51652940380021 pbc="F F F"
Eu       0.00000000       0.00000000       0.00000000       0.00000000       0.00000000      29.35278511
Eu       0.00000000       0.00000000       1.35575758       0.00000000       0.00000000     -29.35278511
2
Properties=species:S:1:pos:R:3:forces:R:3 energy=-16.869990865928997 pbc="F F F"
Eu       0.00000000       0.00000000       0.00000000       0.00000000       0.00000000      25.59194183
Eu       0.00000000       0.00000000       1.41454545       0.00000000       0.00000000     -25.59194183
2
Properties=species:S:1:pos:R:3:forces:R:3 energy=-15.591820289959989 pbc="F F F"
Eu       0.00000000       0.00000000       0.00000000       0.00000000       0.00000000      18.50073624
Eu       0.00000000       0.00000000       1.47333333       0.00000000       0.00000000     -18.50073624
2
Properties=species:S:1:pos:R:3:forces:R:3 energy=-14.615008675214817 pbc="F F F"
Eu       0.00000000       0.00000000       0.00000000       0.00000000       0.00000000      14.49375725
Eu       0.00000000       0.00000000       1.53212121       0.00000000       0.00000000     -14.49375725
2
Properties=species:S:1:pos:R:3:forces:R:3 energy=-13.949182365893776 pbc="F F F"
Eu       0.00000000       0.00000000       0.00000000       0.00000000       0.00000000       8.10791492
Eu       0.00000000       0.00000000       1.59090909       0.00000000       0.00000000      -8.10791492
2
Properties=species:S:1:pos:R:3:forces:R:3 energy=-13.601855311250675 pbc="F F F"
Eu       0.00000000       0.00000000       0.00000000       0.00000000       0.00000000       4.13690853
Eu       0.00000000       0.00000000       1.64969697       0.00000000       0.00000000      -4.13690853
2
Properties=species:S:1:pos:R:3:forces:R:3 energy=-13.463808875859542 pbc="F F F"
Eu       0.00000000       0.00000000       0.00000000       0.00000000       0.00000000       0.37621322
Eu       0.00000000       0.00000000       1.70848485       0.00000000       0.00000000      -0.37621322
2
Properties=species:S:1:pos:R:3:forces:R:3 energy=-13.54076885062399 pbc="F F F"
Eu       0.00000000       0.00000000       0.00000000       0.00000000       0.00000000      -2.70862865
Eu       0.00000000       0.00000000       1.76727273       0.00000000       0.00000000       2.70862865
2
Properties=species:S:1:pos:R:3:forces:R:3 energy=-13.757194629585038 pbc="F F F"
Eu       0.00000000       0.00000000       0.00000000       0.00000000       0.00000000      -4.40090466
Eu       0.00000000       0.00000000       1.82606061       0.00000000       0.00000000       4.40090466
2
Properties=species:S:1:pos:R:3:forces:R:3 energy=-14.042394074337025 pbc="F F F"
Eu       0.00000000       0.00000000       0.00000000       0.00000000       0.00000000      -5.32816505
Eu       0.00000000       0.00000000       1.88484848       0.00000000       0.00000000       5.32816505
2
Properties=species:S:1:pos:R:3:forces:R:3 energy=-14.388299017799778 pbc="F F F"
Eu       0.00000000       0.00000000       0.00000000       0.00000000       0.00000000      -6.36968756
Eu       0.00000000       0.00000000       1.94363636       0.00000000       0.00000000       6.36968756
2
Properties=species:S:1:pos:R:3:forces:R:3 energy=-14.778080878636482 pbc="F F F"
Eu       0.00000000       0.00000000       0.00000000       0.00000000       0.00000000      -6.76725435
Eu       0.00000000       0.00000000       2.00242424       0.00000000       0.00000000       6.76725435
2
Properties=species:S:1:pos:R:3:forces:R:3 energy=-15.179286889800464 pbc="F F F"
Eu       0.00000000       0.00000000       0.00000000       0.00000000       0.00000000      -6.87291431
Eu       0.00000000       0.00000000       2.06121212       0.00000000       0.00000000       6.87291431
2
Properties=species:S:1:pos:R:3:forces:R:3 energy=-15.574033693489676 pbc="F F F"
Eu       0.00000000       0.00000000       0.00000000       0.00000000       0.00000000      -6.42806911
Eu       0.00000000       0.00000000       2.12000000       0.00000000       0.00000000       6.42806911
2
Properties=species:S:1:pos:R:3:forces:R:3 energy=-15.93062585410627 pbc="F F F"
Eu       0.00000000       0.00000000       0.00000000       0.00000000       0.00000000      -5.72499847
Eu       0.00000000       0.00000000       2.17878788       0.00000000       0.00000000       5.72499847
2
Properties=species:S:1:pos:R:3:forces:R:3 energy=-16.245241941643602 pbc="F F F"
Eu       0.00000000       0.00000000       0.00000000       0.00000000       0.00000000      -4.93775320
Eu       0.00000000       0.00000000       2.23757576       0.00000000       0.00000000       4.93775320
2
Properties=species:S:1:pos:R:3:forces:R:3 energy=-16.510553897311837 pbc="F F F"
Eu       0.00000000       0.00000000       0.00000000       0.00000000       0.00000000      -4.09853601
Eu       0.00000000       0.00000000       2.29636364       0.00000000       0.00000000       4.09853601
2
Properties=species:S:1:pos:R:3:forces:R:3 energy=-16.727099678956623 pbc="F F F"
Eu       0.00000000       0.00000000       0.00000000       0.00000000       0.00000000      -3.27399397
Eu       0.00000000       0.00000000       2.35515152       0.00000000       0.00000000       3.27399397
2
Properties=species:S:1:pos:R:3:forces:R:3 energy=-16.89871333926608 pbc="F F F"
Eu       0.00000000       0.00000000       0.00000000       0.00000000       0.00000000      -2.60155892
Eu       0.00000000       0.00000000       2.41393939       0.00000000       0.00000000       2.60155892
2
Properties=species:S:1:pos:R:3:forces:R:3 energy=-17.036706029008602 pbc="F F F"
Eu       0.00000000       0.00000000       0.00000000       0.00000000       0.00000000      -2.11666918
Eu       0.00000000       0.00000000       2.47272727       0.00000000       0.00000000       2.11666918
2
Properties=species:S:1:pos:R:3:forces:R:3 energy=-17.149034398565934 pbc="F F F"
Eu       0.00000000       0.00000000       0.00000000       0.00000000       0.00000000      -1.71143353
Eu       0.00000000       0.00000000       2.53151515       0.00000000       0.00000000       1.71143353
2
Properties=species:S:1:pos:R:3:forces:R:3 energy=-17.239827708520767 pbc="F F F"
Eu       0.00000000       0.00000000       0.00000000       0.00000000       0.00000000      -1.40466237
Eu       0.00000000       0.00000000       2.59030303       0.00000000       0.00000000       1.40466237
2
Properties=species:S:1:pos:R:3:forces:R:3 energy=-17.317534647861624 pbc="F F F"
Eu       0.00000000       0.00000000       0.00000000       0.00000000       0.00000000      -1.26242280
Eu       0.00000000       0.00000000       2.64909091       0.00000000       0.00000000       1.26242280
2
Properties=species:S:1:pos:R:3:forces:R:3 energy=-17.390052412237548 pbc="F F F"
Eu       0.00000000       0.00000000       0.00000000       0.00000000       0.00000000      -1.21236563
Eu       0.00000000       0.00000000       2.70787879       0.00000000       0.00000000       1.21236563
2
Properties=species:S:1:pos:R:3:forces:R:3 energy=-17.460376779829236 pbc="F F F"
Eu       0.00000000       0.00000000       0.00000000       0.00000000       0.00000000      -1.17970800
Eu       0.00000000       0.00000000       2.76666667       0.00000000       0.00000000       1.17970800
2
Properties=species:S:1:pos:R:3:forces:R:3 energy=-17.528672690185573 pbc="F F F"
Eu       0.00000000       0.00000000       0.00000000       0.00000000       0.00000000      -1.14361846
Eu       0.00000000       0.00000000       2.82545455       0.00000000       0.00000000       1.14361846
2
Properties=species:S:1:pos:R:3:forces:R:3 energy=-17.594959192060532 pbc="F F F"
Eu       0.00000000       0.00000000       0.00000000       0.00000000       0.00000000      -1.11364436
Eu       0.00000000       0.00000000       2.88424242       0.00000000       0.00000000       1.11364436
2
Properties=species:S:1:pos:R:3:forces:R:3 energy=-17.65993346522019 pbc="F F F"
Eu       0.00000000       0.00000000       0.00000000       0.00000000       0.00000000      -1.09939516
Eu       0.00000000       0.00000000       2.94303030       0.00000000       0.00000000       1.09939516
2
Properties=species:S:1:pos:R:3:forces:R:3 energy=-17.724407325155067 pbc="F F F"
Eu       0.00000000       0.00000000       0.00000000       0.00000000       0.00000000      -1.09428680
Eu       0.00000000       0.00000000       3.00181818       0.00000000       0.00000000       1.09428680
2
Properties=species:S:1:pos:R:3:forces:R:3 energy=-17.78851397131792 pbc="F F F"
Eu       0.00000000       0.00000000       0.00000000       0.00000000       0.00000000      -1.08574474
Eu       0.00000000       0.00000000       3.06060606       0.00000000       0.00000000       1.08574474
2
Properties=species:S:1:pos:R:3:forces:R:3 energy=-17.85198519478429 pbc="F F F"
Eu       0.00000000       0.00000000       0.00000000       0.00000000       0.00000000      -1.07340753
Eu       0.00000000       0.00000000       3.11939394       0.00000000       0.00000000       1.07340753
2
Properties=species:S:1:pos:R:3:forces:R:3 energy=-17.91473140387554 pbc="F F F"
Eu       0.00000000       0.00000000       0.00000000       0.00000000       0.00000000      -1.06125581
Eu       0.00000000       0.00000000       3.17818182       0.00000000       0.00000000       1.06125581
2
Properties=species:S:1:pos:R:3:forces:R:3 energy=-17.976723353314714 pbc="F F F"
Eu       0.00000000       0.00000000       0.00000000       0.00000000       0.00000000      -1.04701400
Eu       0.00000000       0.00000000       3.23696970       0.00000000       0.00000000       1.04701400
2
Properties=species:S:1:pos:R:3:forces:R:3 energy=-18.0377121117694 pbc="F F F"
Eu       0.00000000       0.00000000       0.00000000       0.00000000       0.00000000      -1.02664900
Eu       0.00000000       0.00000000       3.29575758       0.00000000       0.00000000       1.02664900
2
Properties=species:S:1:pos:R:3:forces:R:3 energy=-18.097313242685903 pbc="F F F"
Eu       0.00000000       0.00000000       0.00000000       0.00000000       0.00000000      -1.00028598
Eu       0.00000000       0.00000000       3.35454545       0.00000000       0.00000000       1.00028598
2
Properties=species:S:1:pos:R:3:forces:R:3 energy=-18.155305773609154 pbc="F F F"
Eu       0.00000000       0.00000000       0.00000000       0.00000000       0.00000000      -0.97311687
Eu       0.00000000       0.00000000       3.41333333       0.00000000       0.00000000       0.97311687
2
Properties=species:S:1:pos:R:3:forces:R:3 energy=-18.211817642672038 pbc="F F F"
Eu       0.00000000       0.00000000       0.00000000       0.00000000       0.00000000      -0.95043647
Eu       0.00000000       0.00000000       3.47212121       0.00000000       0.00000000       0.95043647
2
Properties=species:S:1:pos:R:3:forces:R:3 energy=-18.267123903151013 pbc="F F F"
Eu       0.00000000       0.00000000       0.00000000       0.00000000       0.00000000      -0.93099779
Eu       0.00000000       0.00000000       3.53090909       0.00000000       0.00000000       0.93099779
2
Properties=species:S:1:pos:R:3:forces:R:3 energy=-18.321101796443372 pbc="F F F"
Eu       0.00000000       0.00000000       0.00000000       0.00000000       0.00000000      -0.90196371
Eu       0.00000000       0.00000000       3.58969697       0.00000000       0.00000000       0.90196371
2
Properties=species:S:1:pos:R:3:forces:R:3 energy=-18.37252956954397 pbc="F F F"
Eu       0.00000000       0.00000000       0.00000000       0.00000000       0.00000000      -0.84024858
Eu       0.00000000       0.00000000       3.64848485       0.00000000       0.00000000       0.84024858
2
Properties=species:S:1:pos:R:3:forces:R:3 energy=-18.418957438663902 pbc="F F F"
Eu       0.00000000       0.00000000       0.00000000       0.00000000       0.00000000      -0.73191535
Eu       0.00000000       0.00000000       3.70727273       0.00000000       0.00000000       0.73191535
2
Properties=species:S:1:pos:R:3:forces:R:3 energy=-18.45799660524144 pbc="F F F"
Eu       0.00000000       0.00000000       0.00000000       0.00000000       0.00000000      -0.59429526
Eu       0.00000000       0.00000000       3.76606061       0.00000000       0.00000000       0.59429526
2
Properties=species:S:1:pos:R:3:forces:R:3 energy=-18.48893733764497 pbc="F F F"
Eu       0.00000000       0.00000000       0.00000000       0.00000000       0.00000000      -0.46135435
Eu       0.00000000       0.00000000       3.82484848       0.00000000       0.00000000       0.46135435
2
Properties=species:S:1:pos:R:3:forces:R:3 energy=-18.51272195746751 pbc="F F F"
Eu       0.00000000       0.00000000       0.00000000       0.00000000       0.00000000      -0.35221866
Eu       0.00000000       0.00000000       3.88363636       0.00000000       0.00000000       0.35221866
2
Properties=species:S:1:pos:R:3:forces:R:3 energy=-18.53081147986268 pbc="F F F"
Eu       0.00000000       0.00000000       0.00000000       0.00000000       0.00000000      -0.26657584
Eu       0.00000000       0.00000000       3.94242424       0.00000000       0.00000000       0.26657584
2
Properties=species:S:1:pos:R:3:forces:R:3 energy=-18.544382602889492 pbc="F F F"
Eu       0.00000000       0.00000000       0.00000000       0.00000000       0.00000000      -0.19721642
Eu       0.00000000       0.00000000       4.00121212       0.00000000       0.00000000       0.19721642
2
Properties=species:S:1:pos:R:3:forces:R:3 energy=-18.554200828620843 pbc="F F F"
Eu       0.00000000       0.00000000       0.00000000       0.00000000       0.00000000      -0.13815814
Eu       0.00000000       0.00000000       4.06000000       0.00000000       0.00000000       0.13815814
2
Properties=species:S:1:pos:R:3:forces:R:3 energy=-18.560763415244907 pbc="F F F"
Eu       0.00000000       0.00000000       0.00000000       0.00000000       0.00000000      -0.08612257
Eu       0.00000000       0.00000000       4.11878788       0.00000000       0.00000000       0.08612257
2
Properties=species:S:1:pos:R:3:forces:R:3 energy=-18.564436385692694 pbc="F F F"
Eu       0.00000000       0.00000000       0.00000000       0.00000000       0.00000000      -0.03969675
Eu       0.00000000       0.00000000       4.17757576       0.00000000       0.00000000       0.03969675
2
Properties=species:S:1:pos:R:3:forces:R:3 energy=-18.565532227979723 pbc="F F F"
Eu       0.00000000       0.00000000       0.00000000       0.00000000       0.00000000       0.00156984
Eu       0.00000000       0.00000000       4.23636364       0.00000000       0.00000000      -0.00156984
2
Properties=species:S:1:pos:R:3:forces:R:3 energy=-18.564349797733186 pbc="F F F"
Eu       0.00000000       0.00000000       0.00000000       0.00000000       0.00000000       0.03772775
Eu       0.00000000       0.00000000       4.29515152       0.00000000       0.00000000      -0.03772775
2
Properties=species:S:1:pos:R:3:forces:R:3 energy=-18.561199123837863 pbc="F F F"
Eu       0.00000000       0.00000000       0.00000000       0.00000000       0.00000000       0.06876633
Eu       0.00000000       0.00000000       4.35393939       0.00000000       0.00000000      -0.06876633
2
Properties=species:S:1:pos:R:3:forces:R:3 energy=-18.556363570950936 pbc="F F F"
Eu       0.00000000       0.00000000       0.00000000       0.00000000       0.00000000       0.09480414
Eu       0.00000000       0.00000000       4.41272727       0.00000000       0.00000000      -0.09480414
2
Properties=species:S:1:pos:R:3:forces:R:3 energy=-18.550140444704645 pbc="F F F"
Eu       0.00000000       0.00000000       0.00000000       0.00000000       0.00000000       0.11617501
Eu       0.00000000       0.00000000       4.47151515       0.00000000       0.00000000      -0.11617501
2
Properties=species:S:1:pos:R:3:forces:R:3 energy=-18.54278486097811 pbc="F F F"
Eu       0.00000000       0.00000000       0.00000000       0.00000000       0.00000000       0.13340530
Eu       0.00000000       0.00000000       4.53030303       0.00000000       0.00000000      -0.13340530
2
Properties=species:S:1:pos:R:3:forces:R:3 energy=-18.534525245440875 pbc="F F F"
Eu       0.00000000       0.00000000       0.00000000       0.00000000       0.00000000       0.14712898
Eu       0.00000000       0.00000000       4.58909091       0.00000000       0.00000000      -0.14712898
2
Properties=species:S:1:pos:R:3:forces:R:3 energy=-18.52554275819919 pbc="F F F"
Eu       0.00000000       0.00000000       0.00000000       0.00000000       0.00000000       0.15799057
Eu       0.00000000       0.00000000       4.64787879       0.00000000       0.00000000      -0.15799057
2
Properties=species:S:1:pos:R:3:forces:R:3 energy=-18.515992477371597 pbc="F F F"
Eu       0.00000000       0.00000000       0.00000000       0.00000000       0.00000000       0.16656666
Eu       0.00000000       0.00000000       4.70666667       0.00000000       0.00000000      -0.16656666
2
Properties=species:S:1:pos:R:3:forces:R:3 energy=-18.505995262842827 pbc="F F F"
Eu       0.00000000       0.00000000       0.00000000       0.00000000       0.00000000       0.17332144
Eu       0.00000000       0.00000000       4.76545455       0.00000000       0.00000000      -0.17332144
2
Properties=species:S:1:pos:R:3:forces:R:3 energy=-18.49564427660091 pbc="F F F"
Eu       0.00000000       0.00000000       0.00000000       0.00000000       0.00000000       0.17860302
Eu       0.00000000       0.00000000       4.82424242       0.00000000       0.00000000      -0.17860302
2
Properties=species:S:1:pos:R:3:forces:R:3 energy=-18.485023625399673 pbc="F F F"
Eu       0.00000000       0.00000000       0.00000000       0.00000000       0.00000000       0.18263090
Eu       0.00000000       0.00000000       4.88303030       0.00000000       0.00000000      -0.18263090
2
Properties=species:S:1:pos:R:3:forces:R:3 energy=-18.47419341241626 pbc="F F F"
Eu       0.00000000       0.00000000       0.00000000       0.00000000       0.00000000       0.18549028
Eu       0.00000000       0.00000000       4.94181818       0.00000000       0.00000000      -0.18549028
2
Properties=species:S:1:pos:R:3:forces:R:3 energy=-18.46323697747183 pbc="F F F"
Eu       0.00000000       0.00000000       0.00000000       0.00000000       0.00000000       0.18711737
Eu       0.00000000       0.00000000       5.00060606       0.00000000       0.00000000      -0.18711737
2
Properties=species:S:1:pos:R:3:forces:R:3 energy=-18.452221203842026 pbc="F F F"
Eu       0.00000000       0.00000000       0.00000000       0.00000000       0.00000000       0.18730226
Eu       0.00000000       0.00000000       5.05939394       0.00000000       0.00000000      -0.18730226
2
Properties=species:S:1:pos:R:3:forces:R:3 energy=-18.44124806735519 pbc="F F F"
Eu       0.00000000       0.00000000       0.00000000       0.00000000       0.00000000       0.18571690
Eu       0.00000000       0.00000000       5.11818182       0.00000000       0.00000000      -0.18571690
2
Properties=species:S:1:pos:R:3:forces:R:3 energy=-18.430429498735343 pbc="F F F"
Eu       0.00000000       0.00000000       0.00000000       0.00000000       0.00000000       0.18196525
Eu       0.00000000       0.00000000       5.17696970       0.00000000       0.00000000      -0.18196525
2
Properties=species:S:1:pos:R:3:forces:R:3 energy=-18.419900899769388 pbc="F F F"
Eu       0.00000000       0.00000000       0.00000000       0.00000000       0.00000000       0.17570499
Eu       0.00000000       0.00000000       5.23575758       0.00000000       0.00000000      -0.17570499
2
Properties=species:S:1:pos:R:3:forces:R:3 energy=-18.409822873257685 pbc="F F F"
Eu       0.00000000       0.00000000       0.00000000       0.00000000       0.00000000       0.16672441
Eu       0.00000000       0.00000000       5.29454545       0.00000000       0.00000000      -0.16672441
2
Properties=species:S:1:pos:R:3:forces:R:3 energy=-18.400352676141 pbc="F F F"
Eu       0.00000000       0.00000000       0.00000000       0.00000000       0.00000000       0.15505508
Eu       0.00000000       0.00000000       5.35333333       0.00000000       0.00000000      -0.15505508
2
Properties=species:S:1:pos:R:3:forces:R:3 energy=-18.391640265419085 pbc="F F F"
Eu       0.00000000       0.00000000       0.00000000       0.00000000       0.00000000       0.14102790
Eu       0.00000000       0.00000000       5.41212121       0.00000000       0.00000000      -0.14102790
2
Properties=species:S:1:pos:R:3:forces:R:3 energy=-18.383805226233367 pbc="F F F"
Eu       0.00000000       0.00000000       0.00000000       0.00000000       0.00000000       0.12526891
Eu       0.00000000       0.00000000       5.47090909       0.00000000       0.00000000      -0.12526891
2
Properties=species:S:1:pos:R:3:forces:R:3 energy=-18.376925384795985 pbc="F F F"
Eu       0.00000000       0.00000000       0.00000000       0.00000000       0.00000000       0.10866253
Eu       0.00000000       0.00000000       5.52969697       0.00000000       0.00000000      -0.10866253
2
Properties=species:S:1:pos:R:3:forces:R:3 energy=-18.371025237585087 pbc="F F F"
Eu       0.00000000       0.00000000       0.00000000       0.00000000       0.00000000       0.09223174
Eu       0.00000000       0.00000000       5.58848485       0.00000000       0.00000000      -0.09223174
2
Properties=species:S:1:pos:R:3:forces:R:3 energy=-18.366060610192385 pbc="F F F"
Eu       0.00000000       0.00000000       0.00000000       0.00000000       0.00000000       0.07702666
Eu       0.00000000       0.00000000       5.64727273       0.00000000       0.00000000      -0.07702666
2
Properties=species:S:1:pos:R:3:forces:R:3 energy=-18.36192987966743 pbc="F F F"
Eu       0.00000000       0.00000000       0.00000000       0.00000000       0.00000000       0.06395162
Eu       0.00000000       0.00000000       5.70606061       0.00000000       0.00000000      -0.06395162
2
Properties=species:S:1:pos:R:3:forces:R:3 energy=-18.35848358728847 pbc="F F F"
Eu       0.00000000       0.00000000       0.00000000       0.00000000       0.00000000       0.05365084
Eu       0.00000000       0.00000000       5.76484848       0.00000000       0.00000000      -0.05365084
2
Properties=species:S:1:pos:R:3:forces:R:3 energy=-18.35555873282401 pbc="F F F"
Eu       0.00000000       0.00000000       0.00000000       0.00000000       0.00000000       0.04640575
Eu       0.00000000       0.00000000       5.82363636       0.00000000       0.00000000      -0.04640575
2
Properties=species:S:1:pos:R:3:forces:R:3 energy=-18.352972761047255 pbc="F F F"
Eu       0.00000000       0.00000000       0.00000000       0.00000000       0.00000000       0.04203303
Eu       0.00000000       0.00000000       5.88242424       0.00000000       0.00000000      -0.04203303
2
Properties=species:S:1:pos:R:3:forces:R:3 energy=-18.350573330198603 pbc="F F F"
Eu       0.00000000       0.00000000       0.00000000       0.00000000       0.00000000       0.03989850
Eu       0.00000000       0.00000000       5.94121212       0.00000000       0.00000000      -0.03989850
2
Properties=species:S:1:pos:R:3:forces:R:3 energy=-18.34825710670364 pbc="F F F"
Eu       0.00000000       0.00000000       0.00000000       0.00000000       0.00000000       0.03898740
Eu       0.00000000       0.00000000       6.00000000       0.00000000       0.00000000      -0.03898740
