2
Properties=species:S:1:pos:R:3:forces:R:3 energy=-100439.91082045935 pbc="F F F"
F        0.00000000       0.00000000       0.00000000       0.00000000       0.00000000  977079.87500000
F        0.00000000       0.00000000       0.18000000       0.00000000       0.00000000 -977079.87500000
2
Properties=species:S:1:pos:R:3:forces:R:3 energy=-50181.57878920896 pbc="F F F"
F        0.00000000       0.00000000       0.00000000       0.00000000       0.00000000  706612.93750000
F        0.00000000       0.00000000       0.23878788       0.00000000       0.00000000 -706612.93750000
2
Properties=species:S:1:pos:R:3:forces:R:3 energy=-18658.065117332768 pbc="F F F"
F        0.00000000       0.00000000       0.00000000       0.00000000       0.00000000  370873.87500000
F        0.00000000       0.00000000       0.29757576       0.00000000       0.00000000 -370873.87500000
2
Properties=species:S:1:pos:R:3:forces:R:3 energy=-4598.6266407667035 pbc="F F F"
F        0.00000000       0.00000000       0.00000000       0.00000000       0.00000000  124441.32031250
F        0.00000000       0.00000000       0.35636364       0.00000000       0.00000000 -124441.32031250
2
Properties=species:S:1:pos:R:3:forces:R:3 energy=-325.2978748892474 pbc="F F F"
F        0.00000000       0.00000000       0.00000000       0.00000000       0.00000000   29371.99218750
F        0.00000000       0.00000000       0.41515152       0.00000000       0.00000000  -29371.99218750
2
Properties=species:S:1:pos:R:3:forces:R:3 energy=246.2401652885165 pbc="F F F"
F        0.00000000       0.00000000       0.00000000       0.00000000       0.00000000    -136.93083191
F        0.00000000       0.00000000       0.47393939       0.00000000       0.00000000     136.93083191
2
Properties=species:S:1:pos:R:3:forces:R:3 energy=158.74736746823623 pbc="F F F"
F        0.00000000       0.00000000       0.00000000       0.00000000       0.00000000   -1393.92651367
F        0.00000000       0.00000000       0.53272727       0.00000000       0.00000000    1393.92651367
2
Properties=species:S:1:pos:R:3:forces:R:3 energy=91.9013439629149 pbc="F F F"
F        0.00000000       0.00000000       0.00000000       0.00000000       0.00000000    -844.81964111
F        0.00000000       0.00000000       0.59151515       0.00000000       0.00000000     844.81964111
2
Properties=species:S:1:pos:R:3:forces:R:3 energy=55.46412634000352 pbc="F F F"
F        0.00000000       0.00000000       0.00000000       0.00000000       0.00000000    -421.16281128
F        0.00000000       0.00000000       0.65030303       0.00000000       0.00000000     421.16281128
2
Properties=species:S:1:pos:R:3:forces:R:3 energy=36.74509419297797 pbc="F F F"
F        0.00000000       0.00000000       0.00000000       0.00000000       0.00000000    -235.04043579
F        0.00000000       0.00000000       0.70909091       0.00000000       0.00000000     235.04043579
2
Properties=species:S:1:pos:R:3:forces:R:3 energy=25.594122040076982 pbc="F F F"
F        0.00000000       0.00000000       0.00000000       0.00000000       0.00000000    -156.02482605
F        0.00000000       0.00000000       0.76787879       0.00000000       0.00000000     156.02482605
2
Properties=species:S:1:pos:R:3:forces:R:3 energy=17.829243127798758 pbc="F F F"
F        0.00000000       0.00000000       0.00000000       0.00000000       0.00000000    -111.80004883
F        0.00000000       0.00000000       0.82666667       0.00000000       0.00000000     111.80004883
2
Properties=species:S:1:pos:R:3:forces:R:3 energy=11.981755173121257 pbc="F F F"
F        0.00000000       0.00000000       0.00000000       0.00000000       0.00000000     -88.00402832
F        0.00000000       0.00000000       0.88545455       0.00000000       0.00000000      88.00402832
2
Properties=species:S:1:pos:R:3:forces:R:3 energy=7.391400882500361 pbc="F F F"
F        0.00000000       0.00000000       0.00000000       0.00000000       0.00000000     -67.85202026
F        0.00000000       0.00000000       0.94424242       0.00000000       0.00000000      67.85202026
2
Properties=species:S:1:pos:R:3:forces:R:3 energy=3.8849386909298333 pbc="F F F"
F        0.00000000       0.00000000       0.00000000       0.00000000       0.00000000     -52.46975327
F        0.00000000       0.00000000       1.00303030       0.00000000       0.00000000      52.46975327
2
Properties=species:S:1:pos:R:3:forces:R:3 energy=1.1781956468185113 pbc="F F F"
F        0.00000000       0.00000000       0.00000000       0.00000000       0.00000000     -39.62858200
F        0.00000000       0.00000000       1.06181818       0.00000000       0.00000000      39.62858200
2
Properties=species:S:1:pos:R:3:forces:R:3 energy=-0.802484271402327 pbc="F F F"
F        0.00000000       0.00000000       0.00000000       0.00000000       0.00000000     -29.00309181
F        0.00000000       0.00000000       1.12060606       0.00000000       0.00000000      29.00309181
2
Properties=species:S:1:pos:R:3:forces:R:3 energy=-2.208379519923479 pbc="F F F"
F        0.00000000       0.00000000       0.00000000       0.00000000       0.00000000     -19.09227943
F        0.00000000       0.00000000       1.17939394       0.00000000       0.00000000      19.09227943
2
Properties=species:S:1:pos:R:3:forces:R:3 energy=-3.0876907286154816 pbc="F F F"
F        0.00000000       0.00000000       0.00000000       0.00000000       0.00000000     -11.25086594
F        0.00000000       0.00000000       1.23818182       0.00000000       0.00000000      11.25086594
2
Properties=species:S:1:pos:R:3:forces:R:3 energy=-3.623182616937594 pbc="F F F"
F        0.00000000       0.00000000       0.00000000       0.00000000       0.00000000      -6.74188614
F        0.00000000       0.00000000       1.29696970       0.00000000       0.00000000       6.74188614
2
Properties=species:S:1:pos:R:3:forces:R:3 energy=-3.889131226544873 pbc="F F F"
F        0.00000000       0.00000000       0.00000000       0.00000000       0.00000000      -2.77232003
F        0.00000000       0.00000000       1.35575758       0.00000000       0.00000000       2.77232003
2
Properties=species:S:1:pos:R:3:forces:R:3 energy=-3.977763570992465 pbc="F F F"
F        0.00000000       0.00000000       0.00000000       0.00000000       0.00000000      -0.54250723
F        0.00000000       0.00000000       1.41454545       0.00000000       0.00000000       0.54250723
2
Properties=species:S:1:pos:R:3:forces:R:3 energy=-3.985481400078425 pbc="F F F"
F        0.00000000       0.00000000       0.00000000       0.00000000       0.00000000       0.35830072
F        0.00000000       0.00000000       1.47333333       0.00000000       0.00000000      -0.35830072
2
Properties=species:S:1:pos:R:3:forces:R:3 energy=-3.9309135852205066 pbc="F F F"
F        0.00000000       0.00000000       0.00000000       0.00000000       0.00000000       1.17099261
F        0.00000000       0.00000000       1.53212121       0.00000000       0.00000000      -1.17099261
2
Properties=species:S:1:pos:R:3:forces:R:3 energy=-3.8787381536996475 pbc="F F F"
F        0.00000000       0.00000000       0.00000000       0.00000000       0.00000000       0.54690683
F        0.00000000       0.00000000       1.59090909       0.00000000       0.00000000      -0.54690683
2
Properties=species:S:1:pos:R:3:forces:R:3 energy=-3.856346776934109 pbc="F F F"
F        0.00000000       0.00000000       0.00000000       0.00000000       0.00000000       0.19372490
F        0.00000000       0.00000000       1.64969697       0.00000000       0.00000000      -0.19372490
2
Properties=species:S:1:pos:R:3:forces:R:3 energy=-3.865643278722151 pbc="F F F"
F        0.00000000       0.00000000       0.00000000       0.00000000       0.00000000      -0.52465189
F        0.00000000       0.00000000       1.70848485       0.00000000       0.00000000       0.52465189
2
Properties=species:S:1:pos:R:3:forces:R:3 energy=-3.910662162711973 pbc="F F F"
F        0.00000000       0.00000000       0.00000000       0.00000000       0.00000000      -0.90920347
F        0.00000000       0.00000000       1.76727273       0.00000000       0.00000000       0.90920347
2
Properties=species:S:1:pos:R:3:forces:R:3 energy=-3.965472251539875 pbc="F F F"
F        0.00000000       0.00000000       0.00000000       0.00000000       0.00000000      -0.96454638
F        0.00000000       0.00000000       1.82606061       0.00000000       0.00000000       0.96454638
2
Properties=species:S:1:pos:R:3:forces:R:3 energy=-4.01382507226935 pbc="F F F"
F        0.00000000       0.00000000       0.00000000       0.00000000       0.00000000      -0.58735013
F        0.00000000       0.00000000       1.88484848       0.00000000       0.00000000       0.58735013
2
Properties=species:S:1:pos:R:3:forces:R:3 energy=-4.034539252845872 pbc="F F F"
F        0.00000000       0.00000000       0.00000000       0.00000000       0.00000000      -0.16283971
F        0.00000000       0.00000000       1.94363636       0.00000000       0.00000000       0.16283971
2
Properties=species:S:1:pos:R:3:forces:R:3 energy=-4.033371997169357 pbc="F F F"
F        0.00000000       0.00000000       0.00000000       0.00000000       0.00000000       0.21453571
F        0.00000000       0.00000000       2.00242424       0.00000000       0.00000000      -0.21453571
2
Properties=species:S:1:pos:R:3:forces:R:3 energy=-4.007515656751826 pbc="F F F"
F        0.00000000       0.00000000       0.00000000       0.00000000       0.00000000       0.68219584
F        0.00000000       0.00000000       2.06121212       0.00000000       0.00000000      -0.68219584
2
Properties=species:S:1:pos:R:3:forces:R:3 energy=-3.9561083583619396 pbc="F F F"
F        0.00000000       0.00000000       0.00000000       0.00000000       0.00000000       1.01118326
F        0.00000000       0.00000000       2.12000000       0.00000000       0.00000000      -1.01118326
2
Properties=species:S:1:pos:R:3:forces:R:3 energy=-3.8948159120826977 pbc="F F F"
F        0.00000000       0.00000000       0.00000000       0.00000000       0.00000000       1.03325093
F        0.00000000       0.00000000       2.17878788       0.00000000       0.00000000      -1.03325093
2
Properties=species:S:1:pos:R:3:forces:R:3 energy=-3.8383588349607285 pbc="F F F"
F        0.00000000       0.00000000       0.00000000       0.00000000       0.00000000       0.86761290
F        0.00000000       0.00000000       2.23757576       0.00000000       0.00000000      -0.86761290
2
Properties=species:S:1:pos:R:3:forces:R:3 energy=-3.7933122971349826 pbc="F F F"
F        0.00000000       0.00000000       0.00000000       0.00000000       0.00000000       0.66159272
F        0.00000000       0.00000000       2.29636364       0.00000000       0.00000000      -0.66159272
2
Properties=species:S:1:pos:R:3:forces:R:3 energy=-3.762489980835531 pbc="F F F"
F        0.00000000       0.00000000       0.00000000       0.00000000       0.00000000       0.36712146
F        0.00000000       0.00000000       2.35515152       0.00000000       0.00000000      -0.36712146
2
Properties=species:S:1:pos:R:3:forces:R:3 energy=-3.750181797529531 pbc="F F F"
F        0.00000000       0.00000000       0.00000000       0.00000000       0.00000000       0.07190999
F        0.00000000       0.00000000       2.41393939       0.00000000       0.00000000      -0.07190999
2
Properties=species:S:1:pos:R:3:forces:R:3 energy=-3.7511295042944366 pbc="F F F"
F        0.00000000       0.00000000       0.00000000       0.00000000       0.00000000      -0.08487736
F        0.00000000       0.00000000       2.47272727       0.00000000       0.00000000       0.08487736
2
Properties=species:S:1:pos:R:3:forces:R:3 energy=-3.759251430919527 pbc="F F F"
F        0.00000000       0.00000000       0.00000000       0.00000000       0.00000000      -0.19191046
F        0.00000000       0.00000000       2.53151515       0.00000000       0.00000000       0.19191046
2
Properties=species:S:1:pos:R:3:forces:R:3 energy=-3.7735686794242773 pbc="F F F"
F        0.00000000       0.00000000       0.00000000       0.00000000       0.00000000      -0.29008865
F        0.00000000       0.00000000       2.59030303       0.00000000       0.00000000       0.29008865
2
Properties=species:S:1:pos:R:3:forces:R:3 energy=-3.7925746344580937 pbc="F F F"
F        0.00000000       0.00000000       0.00000000       0.00000000       0.00000000      -0.35033485
F        0.00000000       0.00000000       2.64909091       0.00000000       0.00000000       0.35033485
2
Properties=species:S:1:pos:R:3:forces:R:3 energy=-3.8142140121636876 pbc="F F F"
F        0.00000000       0.00000000       0.00000000       0.00000000       0.00000000      -0.38256797
F        0.00000000       0.00000000       2.70787879       0.00000000       0.00000000       0.38256797
2
Properties=species:S:1:pos:R:3:forces:R:3 energy=-3.837280482163079 pbc="F F F"
F        0.00000000       0.00000000       0.00000000       0.00000000       0.00000000      -0.40024707
F        0.00000000       0.00000000       2.76666667       0.00000000       0.00000000       0.40024707
2
Properties=species:S:1:pos:R:3:forces:R:3 energy=-3.861047123511721 pbc="F F F"
F        0.00000000       0.00000000       0.00000000       0.00000000       0.00000000      -0.40634805
F        0.00000000       0.00000000       2.82545455       0.00000000       0.00000000       0.40634805
2
Properties=species:S:1:pos:R:3:forces:R:3 energy=-3.8848534793637426 pbc="F F F"
F        0.00000000       0.00000000       0.00000000       0.00000000       0.00000000      -0.40217006
F        0.00000000       0.00000000       2.88424242       0.00000000       0.00000000       0.40217006
2
Properties=species:S:1:pos:R:3:forces:R:3 energy=-3.90823523331629 pbc="F F F"
F        0.00000000       0.00000000       0.00000000       0.00000000       0.00000000      -0.39314249
F        0.00000000       0.00000000       2.94303030       0.00000000       0.00000000       0.39314249
2
Properties=species:S:1:pos:R:3:forces:R:3 energy=-3.9311044384121954 pbc="F F F"
F        0.00000000       0.00000000       0.00000000       0.00000000       0.00000000      -0.38537920
F        0.00000000       0.00000000       3.00181818       0.00000000       0.00000000       0.38537920
2
Properties=species:S:1:pos:R:3:forces:R:3 energy=-3.9536221580611803 pbc="F F F"
F        0.00000000       0.00000000       0.00000000       0.00000000       0.00000000      -0.38122511
F        0.00000000       0.00000000       3.06060606       0.00000000       0.00000000       0.38122511
2
Properties=species:S:1:pos:R:3:forces:R:3 energy=-3.9759557206843126 pbc="F F F"
F        0.00000000       0.00000000       0.00000000       0.00000000       0.00000000      -0.37856016
F        0.00000000       0.00000000       3.11939394       0.00000000       0.00000000       0.37856016
2
Properties=species:S:1:pos:R:3:forces:R:3 energy=-3.998109398965285 pbc="F F F"
F        0.00000000       0.00000000       0.00000000       0.00000000       0.00000000      -0.37483394
F        0.00000000       0.00000000       3.17818182       0.00000000       0.00000000       0.37483394
2
Properties=species:S:1:pos:R:3:forces:R:3 energy=-4.019987778111329 pbc="F F F"
F        0.00000000       0.00000000       0.00000000       0.00000000       0.00000000      -0.36910066
F        0.00000000       0.00000000       3.23696970       0.00000000       0.00000000       0.36910066
2
Properties=species:S:1:pos:R:3:forces:R:3 energy=-4.041464859821249 pbc="F F F"
F        0.00000000       0.00000000       0.00000000       0.00000000       0.00000000      -0.36122924
F        0.00000000       0.00000000       3.29575758       0.00000000       0.00000000       0.36122924
2
Properties=species:S:1:pos:R:3:forces:R:3 energy=-4.0624278958639755 pbc="F F F"
F        0.00000000       0.00000000       0.00000000       0.00000000       0.00000000      -0.35179958
F        0.00000000       0.00000000       3.35454545       0.00000000       0.00000000       0.35179958
2
Properties=species:S:1:pos:R:3:forces:R:3 energy=-4.08282026481496 pbc="F F F"
F        0.00000000       0.00000000       0.00000000       0.00000000       0.00000000      -0.34202373
F        0.00000000       0.00000000       3.41333333       0.00000000       0.00000000       0.34202373
2
Properties=species:S:1:pos:R:3:forces:R:3 energy=-4.102665786791477 pbc="F F F"
F        0.00000000       0.00000000       0.00000000       0.00000000       0.00000000      -0.33346942
F        0.00000000       0.00000000       3.47212121       0.00000000       0.00000000       0.33346942
2
Properties=species:S:1:pos:R:3:forces:R:3 energy=-4.122080140617923 pbc="F F F"
F        0.00000000       0.00000000       0.00000000       0.00000000       0.00000000      -0.32750693
F        0.00000000       0.00000000       3.53090909       0.00000000       0.00000000       0.32750693
2
Properties=species:S:1:pos:R:3:forces:R:3 energy=-4.14122938414077 pbc="F F F"
F        0.00000000       0.00000000       0.00000000       0.00000000       0.00000000      -0.32444420
F        0.00000000       0.00000000       3.58969697       0.00000000       0.00000000       0.32444420
2
Properties=species:S:1:pos:R:3:forces:R:3 energy=-4.160264632883589 pbc="F F F"
F        0.00000000       0.00000000       0.00000000       0.00000000       0.00000000      -0.32326886
F        0.00000000       0.00000000       3.64848485       0.00000000       0.00000000       0.32326886
2
Properties=species:S:1:pos:R:3:forces:R:3 energy=-4.179243391617401 pbc="F F F"
F        0.00000000       0.00000000       0.00000000       0.00000000       0.00000000      -0.32233161
F        0.00000000       0.00000000       3.70727273       0.00000000       0.00000000       0.32233161
2
Properties=species:S:1:pos:R:3:forces:R:3 energy=-4.198140535078563 pbc="F F F"
F        0.00000000       0.00000000       0.00000000       0.00000000       0.00000000      -0.32033175
F        0.00000000       0.00000000       3.76606061       0.00000000       0.00000000       0.32033175
2
Properties=species:S:1:pos:R:3:forces:R:3 energy=-4.216876938195135 pbc="F F F"
F        0.00000000       0.00000000       0.00000000       0.00000000       0.00000000      -0.31684470
F        0.00000000       0.00000000       3.82484848       0.00000000       0.00000000       0.31684470
2
Properties=species:S:1:pos:R:3:forces:R:3 energy=-4.235371464800369 pbc="F F F"
F        0.00000000       0.00000000       0.00000000       0.00000000       0.00000000      -0.31217471
F        0.00000000       0.00000000       3.88363636       0.00000000       0.00000000       0.31217471
2
Properties=species:S:1:pos:R:3:forces:R:3 energy=-4.25356817398023 pbc="F F F"
F        0.00000000       0.00000000       0.00000000       0.00000000       0.00000000      -0.30685815
F        0.00000000       0.00000000       3.94242424       0.00000000       0.00000000       0.30685815
2
Properties=species:S:1:pos:R:3:forces:R:3 energy=-4.271444911853758 pbc="F F F"
F        0.00000000       0.00000000       0.00000000       0.00000000       0.00000000      -0.30127218
F        0.00000000       0.00000000       4.00121212       0.00000000       0.00000000       0.30127218
2
Properties=species:S:1:pos:R:3:forces:R:3 energy=-4.288987104140317 pbc="F F F"
F        0.00000000       0.00000000       0.00000000       0.00000000       0.00000000      -0.29552871
F        0.00000000       0.00000000       4.06000000       0.00000000       0.00000000       0.29552871
2
Properties=species:S:1:pos:R:3:forces:R:3 energy=-4.306187295458538 pbc="F F F"
F        0.00000000       0.00000000       0.00000000       0.00000000       0.00000000      -0.28956160
F        0.00000000       0.00000000       4.11878788       0.00000000       0.00000000       0.28956160
2
Properties=species:S:1:pos:R:3:forces:R:3 energy=-4.323027038522793 pbc="F F F"
F        0.00000000       0.00000000       0.00000000       0.00000000       0.00000000      -0.28324080
F        0.00000000       0.00000000       4.17757576       0.00000000       0.00000000       0.28324080
2
Properties=species:S:1:pos:R:3:forces:R:3 energy=-4.339481673800149 pbc="F F F"
F        0.00000000       0.00000000       0.00000000       0.00000000       0.00000000      -0.27645159
F        0.00000000       0.00000000       4.23636364       0.00000000       0.00000000       0.27645159
2
Properties=species:S:1:pos:R:3:forces:R:3 energy=-4.355520335945007 pbc="F F F"
F        0.00000000       0.00000000       0.00000000       0.00000000       0.00000000      -0.26913637
F        0.00000000       0.00000000       4.29515152       0.00000000       0.00000000       0.26913637
2
Properties=species:S:1:pos:R:3:forces:R:3 energy=-4.371114548648285 pbc="F F F"
F        0.00000000       0.00000000       0.00000000       0.00000000       0.00000000      -0.26131690
F        0.00000000       0.00000000       4.35393939       0.00000000       0.00000000       0.26131690
2
Properties=species:S:1:pos:R:3:forces:R:3 energy=-4.386237268785227 pbc="F F F"
F        0.00000000       0.00000000       0.00000000       0.00000000       0.00000000      -0.25306436
F        0.00000000       0.00000000       4.41272727       0.00000000       0.00000000       0.25306436
2
Properties=species:S:1:pos:R:3:forces:R:3 energy=-4.400861939967678 pbc="F F F"
F        0.00000000       0.00000000       0.00000000       0.00000000       0.00000000      -0.24444324
F        0.00000000       0.00000000       4.47151515       0.00000000       0.00000000       0.24444324
2
Properties=species:S:1:pos:R:3:forces:R:3 energy=-4.41497060417097 pbc="F F F"
F        0.00000000       0.00000000       0.00000000       0.00000000       0.00000000      -0.23543799
F        0.00000000       0.00000000       4.53030303       0.00000000       0.00000000       0.23543799
2
Properties=species:S:1:pos:R:3:forces:R:3 energy=-4.428534348242622 pbc="F F F"
F        0.00000000       0.00000000       0.00000000       0.00000000       0.00000000      -0.22593538
F        0.00000000       0.00000000       4.58909091       0.00000000       0.00000000       0.22593538
2
Properties=species:S:1:pos:R:3:forces:R:3 energy=-4.441521414143291 pbc="F F F"
F        0.00000000       0.00000000       0.00000000       0.00000000       0.00000000      -0.21577433
F        0.00000000       0.00000000       4.64787879       0.00000000       0.00000000       0.21577433
2
Properties=species:S:1:pos:R:3:forces:R:3 energy=-4.453889094200009 pbc="F F F"
F        0.00000000       0.00000000       0.00000000       0.00000000       0.00000000      -0.20483561
F        0.00000000       0.00000000       4.70666667       0.00000000       0.00000000       0.20483561
2
Properties=species:S:1:pos:R:3:forces:R:3 energy=-4.465589927959852 pbc="F F F"
F        0.00000000       0.00000000       0.00000000       0.00000000       0.00000000      -0.19315912
F        0.00000000       0.00000000       4.76545455       0.00000000       0.00000000       0.19315912
2
Properties=species:S:1:pos:R:3:forces:R:3 energy=-4.476590300126032 pbc="F F F"
F        0.00000000       0.00000000       0.00000000       0.00000000       0.00000000      -0.18098426
F        0.00000000       0.00000000       4.82424242       0.00000000       0.00000000       0.18098426
2
Properties=species:S:1:pos:R:3:forces:R:3 energy=-4.4868666253656695 pbc="F F F"
F        0.00000000       0.00000000       0.00000000       0.00000000       0.00000000      -0.16872519
F        0.00000000       0.00000000       4.88303030       0.00000000       0.00000000       0.16872519
2
Properties=species:S:1:pos:R:3:forces:R:3 energy=-4.496434910976159 pbc="F F F"
F        0.00000000       0.00000000       0.00000000       0.00000000       0.00000000      -0.15685378
F        0.00000000       0.00000000       4.94181818       0.00000000       0.00000000       0.15685378
2
Properties=species:S:1:pos:R:3:forces:R:3 energy=-4.505325960956976 pbc="F F F"
F        0.00000000       0.00000000       0.00000000       0.00000000       0.00000000      -0.14575459
F        0.00000000       0.00000000       5.00060606       0.00000000       0.00000000       0.14575459
2
Properties=species:S:1:pos:R:3:forces:R:3 energy=-4.513590621441148 pbc="F F F"
F        0.00000000       0.00000000       0.00000000       0.00000000       0.00000000      -0.13559429
F        0.00000000       0.00000000       5.05939394       0.00000000       0.00000000       0.13559429
2
Properties=species:S:1:pos:R:3:forces:R:3 energy=-4.521283566128245 pbc="F F F"
F        0.00000000       0.00000000       0.00000000       0.00000000       0.00000000      -0.12625960
F        0.00000000       0.00000000       5.11818182       0.00000000       0.00000000       0.12625960
2
Properties=species:S:1:pos:R:3:forces:R:3 energy=-4.528444699090743 pbc="F F F"
F        0.00000000       0.00000000       0.00000000       0.00000000       0.00000000      -0.11738163
F        0.00000000       0.00000000       5.17696970       0.00000000       0.00000000       0.11738163
2
Properties=species:S:1:pos:R:3:forces:R:3 energy=-4.535084372673622 pbc="F F F"
F        0.00000000       0.00000000       0.00000000       0.00000000       0.00000000      -0.10844659
F        0.00000000       0.00000000       5.23575758       0.00000000       0.00000000       0.10844659
2
Properties=species:S:1:pos:R:3:forces:R:3 energy=-4.541184339609528 pbc="F F F"
F        0.00000000       0.00000000       0.00000000       0.00000000       0.00000000      -0.09893487
F        0.00000000       0.00000000       5.29454545       0.00000000       0.00000000       0.09893487
2
Properties=species:S:1:pos:R:3:forces:R:3 energy=-4.546698706693084 pbc="F F F"
F        0.00000000       0.00000000       0.00000000       0.00000000       0.00000000      -0.08846853
F        0.00000000       0.00000000       5.35333333       0.00000000       0.00000000       0.08846853
2
Properties=species:S:1:pos:R:3:forces:R:3 energy=-4.551564900055637 pbc="F F F"
F        0.00000000       0.00000000       0.00000000       0.00000000       0.00000000      -0.07692802
F        0.00000000       0.00000000       5.41212121       0.00000000       0.00000000       0.07692802
2
Properties=species:S:1:pos:R:3:forces:R:3 energy=-4.555724169856031 pbc="F F F"
F        0.00000000       0.00000000       0.00000000       0.00000000       0.00000000      -0.06449373
F        0.00000000       0.00000000       5.47090909       0.00000000       0.00000000       0.06449373
2
Properties=species:S:1:pos:R:3:forces:R:3 energy=-4.5591387548591324 pbc="F F F"
F        0.00000000       0.00000000       0.00000000       0.00000000       0.00000000      -0.05162356
F        0.00000000       0.00000000       5.52969697       0.00000000       0.00000000       0.05162356
2
Properties=species:S:1:pos:R:3:forces:R:3 energy=-4.561799034263122 pbc="F F F"
F        0.00000000       0.00000000       0.00000000       0.00000000       0.00000000      -0.03898329
F        0.00000000       0.00000000       5.58848485       0.00000000       0.00000000       0.03898329
2
Properties=species:S:1:pos:R:3:forces:R:3 energy=-4.5637411710703235 pbc="F F F"
F        0.00000000       0.00000000       0.00000000       0.00000000       0.00000000      -0.02732738
F        0.00000000       0.00000000       5.64727273       0.00000000       0.00000000       0.02732738
2
Properties=species:S:1:pos:R:3:forces:R:3 energy=-4.565045203092793 pbc="F F F"
F        0.00000000       0.00000000       0.00000000       0.00000000       0.00000000      -0.01735785
F        0.00000000       0.00000000       5.70606061       0.00000000       0.00000000       0.01735785
2
Properties=species:S:1:pos:R:3:forces:R:3 energy=-4.565826936497888 pbc="F F F"
F        0.00000000       0.00000000       0.00000000       0.00000000       0.00000000      -0.00958643
F        0.00000000       0.00000000       5.76484848       0.00000000       0.00000000       0.00958643
2
Properties=species:S:1:pos:R:3:forces:R:3 energy=-4.5662212568665845 pbc="F F F"
F        0.00000000       0.00000000       0.00000000       0.00000000       0.00000000      -0.00425497
F        0.00000000       0.00000000       5.82363636       0.00000000       0.00000000       0.00425497
2
Properties=species:S:1:pos:R:3:forces:R:3 energy=-4.566372113794137 pbc="F F F"
F        0.00000000       0.00000000       0.00000000       0.00000000       0.00000000      -0.00123408
F        0.00000000       0.00000000       5.88242424       0.00000000       0.00000000       0.00123408
2
Properties=species:S:1:pos:R:3:forces:R:3 energy=-4.566402480829694 pbc="F F F"
F        0.00000000       0.00000000       0.00000000       0.00000000       0.00000000      -0.00003698
F        0.00000000       0.00000000       5.94121212       0.00000000       0.00000000       0.00003698
2
Properties=species:S:1:pos:R:3:forces:R:3 energy=-4.566396711709489 pbc="F F F"
F        0.00000000       0.00000000       0.00000000       0.00000000       0.00000000       0.00013400
F        0.00000000       0.00000000       6.00000000       0.00000000       0.00000000      -0.00013400
