2
Properties=species:S:1:pos:R:3:forces:R:3 energy=182729103.96975398 pbc="F F F"
Fe       0.00000000       0.00000000       0.00000000       0.00000000       0.00000000 -873155456.00000000
Fe       0.00000000       0.00000000       0.10000000       0.00000000       0.00000000 873155456.00000000
2
Properties=species:S:1:pos:R:3:forces:R:3 energy=125949407.96975397 pbc="F F F"
Fe       0.00000000       0.00000000       0.00000000       0.00000000       0.00000000 -973578048.00000000
Fe       0.00000000       0.00000000       0.15959596       0.00000000       0.00000000 973578048.00000000
2
Properties=species:S:1:pos:R:3:forces:R:3 energy=72547471.96975397 pbc="F F F"
Fe       0.00000000       0.00000000       0.00000000       0.00000000       0.00000000 -783302464.00000000
Fe       0.00000000       0.00000000       0.21919192       0.00000000       0.00000000 783302464.00000000
2
Properties=species:S:1:pos:R:3:forces:R:3 energy=34927703.96975397 pbc="F F F"
Fe       0.00000000       0.00000000       0.00000000       0.00000000       0.00000000 -480544800.00000000
Fe       0.00000000       0.00000000       0.27878788       0.00000000       0.00000000 480544800.00000000
2
Properties=species:S:1:pos:R:3:forces:R:3 energy=14211060.969753977 pbc="F F F"
Fe       0.00000000       0.00000000       0.00000000       0.00000000       0.00000000 -231492336.00000000
Fe       0.00000000       0.00000000       0.33838384       0.00000000       0.00000000 231492336.00000000
2
Properties=species:S:1:pos:R:3:forces:R:3 energy=5075174.9697539825 pbc="F F F"
Fe       0.00000000       0.00000000       0.00000000       0.00000000       0.00000000 -92212952.00000000
Fe       0.00000000       0.00000000       0.39797980       0.00000000       0.00000000 92212952.00000000
2
Properties=species:S:1:pos:R:3:forces:R:3 energy=1616423.594753989 pbc="F F F"
Fe       0.00000000       0.00000000       0.00000000       0.00000000       0.00000000 -32372436.00000000
Fe       0.00000000       0.00000000       0.45757576       0.00000000       0.00000000 32372436.00000000
2
Properties=species:S:1:pos:R:3:forces:R:3 energy=477878.53225400794 pbc="F F F"
Fe       0.00000000       0.00000000       0.00000000       0.00000000       0.00000000 -10171514.00000000
Fe       0.00000000       0.00000000       0.51717172       0.00000000       0.00000000 10171514.00000000
2
Properties=species:S:1:pos:R:3:forces:R:3 energy=123595.97756653962 pbc="F F F"
Fe       0.00000000       0.00000000       0.00000000       0.00000000       0.00000000 -2949948.75000000
Fe       0.00000000       0.00000000       0.57676768       0.00000000       0.00000000 2949948.75000000
2
Properties=species:S:1:pos:R:3:forces:R:3 energy=28609.604519715296 pbc="F F F"
Fe       0.00000000       0.00000000       0.00000000       0.00000000       0.00000000 -736097.56250000
Fe       0.00000000       0.00000000       0.63636364       0.00000000       0.00000000  736097.56250000
2
Properties=species:S:1:pos:R:3:forces:R:3 energy=6521.799832297661 pbc="F F F"
Fe       0.00000000       0.00000000       0.00000000       0.00000000       0.00000000 -163037.60937500
Fe       0.00000000       0.00000000       0.69595960       0.00000000       0.00000000  163037.60937500
2
Properties=species:S:1:pos:R:3:forces:R:3 energy=1280.6540804744168 pbc="F F F"
Fe       0.00000000       0.00000000       0.00000000       0.00000000       0.00000000  -38158.04687500
Fe       0.00000000       0.00000000       0.75555556       0.00000000       0.00000000   38158.04687500
2
Properties=species:S:1:pos:R:3:forces:R:3 energy=184.53490952507585 pbc="F F F"
Fe       0.00000000       0.00000000       0.00000000       0.00000000       0.00000000   -5941.59277344
Fe       0.00000000       0.00000000       0.81515152       0.00000000       0.00000000    5941.59277344
2
Properties=species:S:1:pos:R:3:forces:R:3 energy=47.77132566371348 pbc="F F F"
Fe       0.00000000       0.00000000       0.00000000       0.00000000       0.00000000    -474.40054321
Fe       0.00000000       0.00000000       0.87474747       0.00000000       0.00000000     474.40054321
2
Properties=species:S:1:pos:R:3:forces:R:3 energy=40.9057597996935 pbc="F F F"
Fe       0.00000000       0.00000000       0.00000000       0.00000000       0.00000000     -26.16083336
Fe       0.00000000       0.00000000       0.93434343       0.00000000       0.00000000      26.16083336
2
Properties=species:S:1:pos:R:3:forces:R:3 energy=36.13228469758626 pbc="F F F"
Fe       0.00000000       0.00000000       0.00000000       0.00000000       0.00000000    -121.97048187
Fe       0.00000000       0.00000000       0.99393939       0.00000000       0.00000000     121.97048187
2
Properties=species:S:1:pos:R:3:forces:R:3 energy=29.08442243226484 pbc="F F F"
Fe       0.00000000       0.00000000       0.00000000       0.00000000       0.00000000    -116.18300629
Fe       0.00000000       0.00000000       1.05353535       0.00000000       0.00000000     116.18300629
2
Properties=species:S:1:pos:R:3:forces:R:3 energy=22.9120410627212 pbc="F F F"
Fe       0.00000000       0.00000000       0.00000000       0.00000000       0.00000000     -95.74119568
Fe       0.00000000       0.00000000       1.11313131       0.00000000       0.00000000      95.74119568
2
Properties=species:S:1:pos:R:3:forces:R:3 energy=17.016029104808407 pbc="F F F"
Fe       0.00000000       0.00000000       0.00000000       0.00000000       0.00000000    -101.50871277
Fe       0.00000000       0.00000000       1.17272727       0.00000000       0.00000000     101.50871277
2
Properties=species:S:1:pos:R:3:forces:R:3 energy=11.378518589394185 pbc="F F F"
Fe       0.00000000       0.00000000       0.00000000       0.00000000       0.00000000     -87.69664001
Fe       0.00000000       0.00000000       1.23232323       0.00000000       0.00000000      87.69664001
2
Properties=species:S:1:pos:R:3:forces:R:3 energy=6.593705921589807 pbc="F F F"
Fe       0.00000000       0.00000000       0.00000000       0.00000000       0.00000000     -74.06014252
Fe       0.00000000       0.00000000       1.29191919       0.00000000       0.00000000      74.06014252
2
Properties=species:S:1:pos:R:3:forces:R:3 energy=2.529036210670124 pbc="F F F"
Fe       0.00000000       0.00000000       0.00000000       0.00000000       0.00000000     -61.36715317
Fe       0.00000000       0.00000000       1.35151515       0.00000000       0.00000000      61.36715317
2
Properties=species:S:1:pos:R:3:forces:R:3 energy=-0.7424876235801506 pbc="F F F"
Fe       0.00000000       0.00000000       0.00000000       0.00000000       0.00000000     -48.52843857
Fe       0.00000000       0.00000000       1.41111111       0.00000000       0.00000000      48.52843857
2
Properties=species:S:1:pos:R:3:forces:R:3 energy=-3.287911591404041 pbc="F F F"
Fe       0.00000000       0.00000000       0.00000000       0.00000000       0.00000000     -36.78888321
Fe       0.00000000       0.00000000       1.47070707       0.00000000       0.00000000      36.78888321
2
Properties=species:S:1:pos:R:3:forces:R:3 energy=-5.123651152593496 pbc="F F F"
Fe       0.00000000       0.00000000       0.00000000       0.00000000       0.00000000     -25.26704597
Fe       0.00000000       0.00000000       1.53030303       0.00000000       0.00000000      25.26704597
2
Properties=species:S:1:pos:R:3:forces:R:3 energy=-6.371816547256917 pbc="F F F"
Fe       0.00000000       0.00000000       0.00000000       0.00000000       0.00000000     -17.31937790
Fe       0.00000000       0.00000000       1.58989899       0.00000000       0.00000000      17.31937790
2
Properties=species:S:1:pos:R:3:forces:R:3 energy=-7.25512067714929 pbc="F F F"
Fe       0.00000000       0.00000000       0.00000000       0.00000000       0.00000000     -12.49175358
Fe       0.00000000       0.00000000       1.64949495       0.00000000       0.00000000      12.49175358
2
Properties=species:S:1:pos:R:3:forces:R:3 energy=-7.889704432225691 pbc="F F F"
Fe       0.00000000       0.00000000       0.00000000       0.00000000       0.00000000      -8.96566677
Fe       0.00000000       0.00000000       1.70909091       0.00000000       0.00000000       8.96566677
2
Properties=species:S:1:pos:R:3:forces:R:3 energy=-8.327928231448654 pbc="F F F"
Fe       0.00000000       0.00000000       0.00000000       0.00000000       0.00000000      -5.85681248
Fe       0.00000000       0.00000000       1.76868687       0.00000000       0.00000000       5.85681248
2
Properties=species:S:1:pos:R:3:forces:R:3 energy=-8.614608527464679 pbc="F F F"
Fe       0.00000000       0.00000000       0.00000000       0.00000000       0.00000000      -3.85208702
Fe       0.00000000       0.00000000       1.82828283       0.00000000       0.00000000       3.85208702
2
Properties=species:S:1:pos:R:3:forces:R:3 energy=-8.784025200278087 pbc="F F F"
Fe       0.00000000       0.00000000       0.00000000       0.00000000       0.00000000      -1.99866581
Fe       0.00000000       0.00000000       1.88787879       0.00000000       0.00000000       1.99866581
2
Properties=species:S:1:pos:R:3:forces:R:3 energy=-8.86603489939499 pbc="F F F"
Fe       0.00000000       0.00000000       0.00000000       0.00000000       0.00000000      -0.78286588
Fe       0.00000000       0.00000000       1.94747475       0.00000000       0.00000000       0.78286588
2
Properties=species:S:1:pos:R:3:forces:R:3 energy=-8.889036321224067 pbc="F F F"
Fe       0.00000000       0.00000000       0.00000000       0.00000000       0.00000000      -0.13418674
Fe       0.00000000       0.00000000       2.00707071       0.00000000       0.00000000       0.13418674
2
Properties=species:S:1:pos:R:3:forces:R:3 energy=-8.892379605863454 pbc="F F F"
Fe       0.00000000       0.00000000       0.00000000       0.00000000       0.00000000       0.00855668
Fe       0.00000000       0.00000000       2.06666667       0.00000000       0.00000000      -0.00855668
2
Properties=species:S:1:pos:R:3:forces:R:3 energy=-8.888253407808673 pbc="F F F"
Fe       0.00000000       0.00000000       0.00000000       0.00000000       0.00000000       0.12685154
Fe       0.00000000       0.00000000       2.12626263       0.00000000       0.00000000      -0.12685154
2
Properties=species:S:1:pos:R:3:forces:R:3 energy=-8.878342822320828 pbc="F F F"
Fe       0.00000000       0.00000000       0.00000000       0.00000000       0.00000000       0.18618616
Fe       0.00000000       0.00000000       2.18585859       0.00000000       0.00000000      -0.18618616
2
Properties=species:S:1:pos:R:3:forces:R:3 energy=-8.867215197075483 pbc="F F F"
Fe       0.00000000       0.00000000       0.00000000       0.00000000       0.00000000       0.18005899
Fe       0.00000000       0.00000000       2.24545455       0.00000000       0.00000000      -0.18005899
2
Properties=species:S:1:pos:R:3:forces:R:3 energy=-8.85889648092077 pbc="F F F"
Fe       0.00000000       0.00000000       0.00000000       0.00000000       0.00000000       0.09268889
Fe       0.00000000       0.00000000       2.30505051       0.00000000       0.00000000      -0.09268889
2
Properties=species:S:1:pos:R:3:forces:R:3 energy=-8.852698714122655 pbc="F F F"
Fe       0.00000000       0.00000000       0.00000000       0.00000000       0.00000000       0.16660096
Fe       0.00000000       0.00000000       2.36464646       0.00000000       0.00000000      -0.16660096
2
Properties=species:S:1:pos:R:3:forces:R:3 energy=-8.835132073584603 pbc="F F F"
Fe       0.00000000       0.00000000       0.00000000       0.00000000       0.00000000       0.42573848
Fe       0.00000000       0.00000000       2.42424242       0.00000000       0.00000000      -0.42573848
2
Properties=species:S:1:pos:R:3:forces:R:3 energy=-8.804358535986527 pbc="F F F"
Fe       0.00000000       0.00000000       0.00000000       0.00000000       0.00000000       0.57486284
Fe       0.00000000       0.00000000       2.48383838       0.00000000       0.00000000      -0.57486284
2
Properties=species:S:1:pos:R:3:forces:R:3 energy=-8.769411689774685 pbc="F F F"
Fe       0.00000000       0.00000000       0.00000000       0.00000000       0.00000000       0.59261513
Fe       0.00000000       0.00000000       2.54343434       0.00000000       0.00000000      -0.59261513
2
Properties=species:S:1:pos:R:3:forces:R:3 energy=-8.732544162675731 pbc="F F F"
Fe       0.00000000       0.00000000       0.00000000       0.00000000       0.00000000       0.66070449
Fe       0.00000000       0.00000000       2.60303030       0.00000000       0.00000000      -0.66070449
2
Properties=species:S:1:pos:R:3:forces:R:3 energy=-8.689415080119618 pbc="F F F"
Fe       0.00000000       0.00000000       0.00000000       0.00000000       0.00000000       0.78779691
Fe       0.00000000       0.00000000       2.66262626       0.00000000       0.00000000      -0.78779691
2
Properties=species:S:1:pos:R:3:forces:R:3 energy=-8.639459812354934 pbc="F F F"
Fe       0.00000000       0.00000000       0.00000000       0.00000000       0.00000000       0.87762535
Fe       0.00000000       0.00000000       2.72222222       0.00000000       0.00000000      -0.87762535
2
Properties=species:S:1:pos:R:3:forces:R:3 energy=-8.586009100978137 pbc="F F F"
Fe       0.00000000       0.00000000       0.00000000       0.00000000       0.00000000       0.90882856
Fe       0.00000000       0.00000000       2.78181818       0.00000000       0.00000000      -0.90882856
2
Properties=species:S:1:pos:R:3:forces:R:3 energy=-8.531661265129635 pbc="F F F"
Fe       0.00000000       0.00000000       0.00000000       0.00000000       0.00000000       0.91250718
Fe       0.00000000       0.00000000       2.84141414       0.00000000       0.00000000      -0.91250718
2
Properties=species:S:1:pos:R:3:forces:R:3 energy=-8.477498989159905 pbc="F F F"
Fe       0.00000000       0.00000000       0.00000000       0.00000000       0.00000000       0.90304470
Fe       0.00000000       0.00000000       2.90101010       0.00000000       0.00000000      -0.90304470
2
Properties=species:S:1:pos:R:3:forces:R:3 energy=-8.424259427567506 pbc="F F F"
Fe       0.00000000       0.00000000       0.00000000       0.00000000       0.00000000       0.88209373
Fe       0.00000000       0.00000000       2.96060606       0.00000000       0.00000000      -0.88209373
2
Properties=species:S:1:pos:R:3:forces:R:3 energy=-8.372469681184814 pbc="F F F"
Fe       0.00000000       0.00000000       0.00000000       0.00000000       0.00000000       0.85548872
Fe       0.00000000       0.00000000       3.02020202       0.00000000       0.00000000      -0.85548872
2
Properties=species:S:1:pos:R:3:forces:R:3 energy=-8.32234289231981 pbc="F F F"
Fe       0.00000000       0.00000000       0.00000000       0.00000000       0.00000000       0.82599902
Fe       0.00000000       0.00000000       3.07979798       0.00000000       0.00000000      -0.82599902
2
Properties=species:S:1:pos:R:3:forces:R:3 energy=-8.274160207514779 pbc="F F F"
Fe       0.00000000       0.00000000       0.00000000       0.00000000       0.00000000       0.78954548
Fe       0.00000000       0.00000000       3.13939394       0.00000000       0.00000000      -0.78954548
2
Properties=species:S:1:pos:R:3:forces:R:3 energy=-8.22840142331321 pbc="F F F"
Fe       0.00000000       0.00000000       0.00000000       0.00000000       0.00000000       0.74492061
Fe       0.00000000       0.00000000       3.19898990       0.00000000       0.00000000      -0.74492061
2
Properties=species:S:1:pos:R:3:forces:R:3 energy=-8.185479525363315 pbc="F F F"
Fe       0.00000000       0.00000000       0.00000000       0.00000000       0.00000000       0.69477445
Fe       0.00000000       0.00000000       3.25858586       0.00000000       0.00000000      -0.69477445
2
Properties=species:S:1:pos:R:3:forces:R:3 energy=-8.145672739795058 pbc="F F F"
Fe       0.00000000       0.00000000       0.00000000       0.00000000       0.00000000       0.64042193
Fe       0.00000000       0.00000000       3.31818182       0.00000000       0.00000000      -0.64042193
2
Properties=species:S:1:pos:R:3:forces:R:3 energy=-8.10922414617287 pbc="F F F"
Fe       0.00000000       0.00000000       0.00000000       0.00000000       0.00000000       0.58217847
Fe       0.00000000       0.00000000       3.37777778       0.00000000       0.00000000      -0.58217847
2
Properties=species:S:1:pos:R:3:forces:R:3 energy=-8.076329400106776 pbc="F F F"
Fe       0.00000000       0.00000000       0.00000000       0.00000000       0.00000000       0.52160376
Fe       0.00000000       0.00000000       3.43737374       0.00000000       0.00000000      -0.52160376
2
Properties=species:S:1:pos:R:3:forces:R:3 energy=-8.04703718832793 pbc="F F F"
Fe       0.00000000       0.00000000       0.00000000       0.00000000       0.00000000       0.46182173
Fe       0.00000000       0.00000000       3.49696970       0.00000000       0.00000000      -0.46182173
2
Properties=species:S:1:pos:R:3:forces:R:3 energy=-8.021201213855457 pbc="F F F"
Fe       0.00000000       0.00000000       0.00000000       0.00000000       0.00000000       0.40610695
Fe       0.00000000       0.00000000       3.55656566       0.00000000       0.00000000      -0.40610695
2
Properties=species:S:1:pos:R:3:forces:R:3 energy=-7.998514102119837 pbc="F F F"
Fe       0.00000000       0.00000000       0.00000000       0.00000000       0.00000000       0.35633987
Fe       0.00000000       0.00000000       3.61616162       0.00000000       0.00000000      -0.35633987
2
Properties=species:S:1:pos:R:3:forces:R:3 energy=-7.978606175946741 pbc="F F F"
Fe       0.00000000       0.00000000       0.00000000       0.00000000       0.00000000       0.31271696
Fe       0.00000000       0.00000000       3.67575758       0.00000000       0.00000000      -0.31271696
2
Properties=species:S:1:pos:R:3:forces:R:3 energy=-7.961131845446039 pbc="F F F"
Fe       0.00000000       0.00000000       0.00000000       0.00000000       0.00000000       0.27453354
Fe       0.00000000       0.00000000       3.73535354       0.00000000       0.00000000      -0.27453354
2
Properties=species:S:1:pos:R:3:forces:R:3 energy=-7.94579204470082 pbc="F F F"
Fe       0.00000000       0.00000000       0.00000000       0.00000000       0.00000000       0.24103385
Fe       0.00000000       0.00000000       3.79494949       0.00000000       0.00000000      -0.24103385
2
Properties=species:S:1:pos:R:3:forces:R:3 energy=-7.93231949416499 pbc="F F F"
Fe       0.00000000       0.00000000       0.00000000       0.00000000       0.00000000       0.21177243
Fe       0.00000000       0.00000000       3.85454545       0.00000000       0.00000000      -0.21177243
2
Properties=species:S:1:pos:R:3:forces:R:3 energy=-7.920469672435492 pbc="F F F"
Fe       0.00000000       0.00000000       0.00000000       0.00000000       0.00000000       0.18653627
Fe       0.00000000       0.00000000       3.91414141       0.00000000       0.00000000      -0.18653627
2
Properties=species:S:1:pos:R:3:forces:R:3 energy=-7.910009804648156 pbc="F F F"
Fe       0.00000000       0.00000000       0.00000000       0.00000000       0.00000000       0.16509667
Fe       0.00000000       0.00000000       3.97373737       0.00000000       0.00000000      -0.16509667
2
Properties=species:S:1:pos:R:3:forces:R:3 energy=-7.90072454650973 pbc="F F F"
Fe       0.00000000       0.00000000       0.00000000       0.00000000       0.00000000       0.14703949
Fe       0.00000000       0.00000000       4.03333333       0.00000000       0.00000000      -0.14703949
2
Properties=species:S:1:pos:R:3:forces:R:3 energy=-7.892427867212975 pbc="F F F"
Fe       0.00000000       0.00000000       0.00000000       0.00000000       0.00000000       0.13178773
Fe       0.00000000       0.00000000       4.09292929       0.00000000       0.00000000      -0.13178773
2
Properties=species:S:1:pos:R:3:forces:R:3 energy=-7.884972497480801 pbc="F F F"
Fe       0.00000000       0.00000000       0.00000000       0.00000000       0.00000000       0.11875524
Fe       0.00000000       0.00000000       4.15252525       0.00000000       0.00000000      -0.11875524
2
Properties=species:S:1:pos:R:3:forces:R:3 energy=-7.878238333419013 pbc="F F F"
Fe       0.00000000       0.00000000       0.00000000       0.00000000       0.00000000       0.10748706
Fe       0.00000000       0.00000000       4.21212121       0.00000000       0.00000000      -0.10748706
2
Properties=species:S:1:pos:R:3:forces:R:3 energy=-7.872130936312747 pbc="F F F"
Fe       0.00000000       0.00000000       0.00000000       0.00000000       0.00000000       0.09769695
Fe       0.00000000       0.00000000       4.27171717       0.00000000       0.00000000      -0.09769695
2
Properties=species:S:1:pos:R:3:forces:R:3 energy=-7.866567520615196 pbc="F F F"
Fe       0.00000000       0.00000000       0.00000000       0.00000000       0.00000000       0.08921848
Fe       0.00000000       0.00000000       4.33131313       0.00000000       0.00000000      -0.08921848
2
Properties=species:S:1:pos:R:3:forces:R:3 energy=-7.861472999866174 pbc="F F F"
Fe       0.00000000       0.00000000       0.00000000       0.00000000       0.00000000       0.08192667
Fe       0.00000000       0.00000000       4.39090909       0.00000000       0.00000000      -0.08192667
2
Properties=species:S:1:pos:R:3:forces:R:3 energy=-7.856781779999148 pbc="F F F"
Fe       0.00000000       0.00000000       0.00000000       0.00000000       0.00000000       0.07569300
Fe       0.00000000       0.00000000       4.45050505       0.00000000       0.00000000      -0.07569300
2
Properties=species:S:1:pos:R:3:forces:R:3 energy=-7.852433296744417 pbc="F F F"
Fe       0.00000000       0.00000000       0.00000000       0.00000000       0.00000000       0.07038154
Fe       0.00000000       0.00000000       4.51010101       0.00000000       0.00000000      -0.07038154
2
Properties=species:S:1:pos:R:3:forces:R:3 energy=-7.84837707076853 pbc="F F F"
Fe       0.00000000       0.00000000       0.00000000       0.00000000       0.00000000       0.06586782
Fe       0.00000000       0.00000000       4.56969697       0.00000000       0.00000000      -0.06586782
2
Properties=species:S:1:pos:R:3:forces:R:3 energy=-7.844568447818075 pbc="F F F"
Fe       0.00000000       0.00000000       0.00000000       0.00000000       0.00000000       0.06205693
Fe       0.00000000       0.00000000       4.62929293       0.00000000       0.00000000      -0.06205693
2
Properties=species:S:1:pos:R:3:forces:R:3 energy=-7.840966952796304 pbc="F F F"
Fe       0.00000000       0.00000000       0.00000000       0.00000000       0.00000000       0.05888604
Fe       0.00000000       0.00000000       4.68888889       0.00000000       0.00000000      -0.05888604
2
Properties=species:S:1:pos:R:3:forces:R:3 energy=-7.837537726610251 pbc="F F F"
Fe       0.00000000       0.00000000       0.00000000       0.00000000       0.00000000       0.05631188
Fe       0.00000000       0.00000000       4.74848485       0.00000000       0.00000000      -0.05631188
2
Properties=species:S:1:pos:R:3:forces:R:3 energy=-7.834244679388122 pbc="F F F"
Fe       0.00000000       0.00000000       0.00000000       0.00000000       0.00000000       0.05429889
Fe       0.00000000       0.00000000       4.80808081       0.00000000       0.00000000      -0.05429889
2
Properties=species:S:1:pos:R:3:forces:R:3 energy=-7.83105495624393 pbc="F F F"
Fe       0.00000000       0.00000000       0.00000000       0.00000000       0.00000000       0.05281175
Fe       0.00000000       0.00000000       4.86767677       0.00000000       0.00000000      -0.05281175
2
Properties=species:S:1:pos:R:3:forces:R:3 energy=-7.827939726225072 pbc="F F F"
Fe       0.00000000       0.00000000       0.00000000       0.00000000       0.00000000       0.05180524
Fe       0.00000000       0.00000000       4.92727273       0.00000000       0.00000000      -0.05180524
2
Properties=species:S:1:pos:R:3:forces:R:3 energy=-7.824872347823595 pbc="F F F"
Fe       0.00000000       0.00000000       0.00000000       0.00000000       0.00000000       0.05121562
Fe       0.00000000       0.00000000       4.98686869       0.00000000       0.00000000      -0.05121562
2
Properties=species:S:1:pos:R:3:forces:R:3 energy=-7.821830807014968 pbc="F F F"
Fe       0.00000000       0.00000000       0.00000000       0.00000000       0.00000000       0.05094081
Fe       0.00000000       0.00000000       5.04646465       0.00000000       0.00000000      -0.05094081
2
Properties=species:S:1:pos:R:3:forces:R:3 energy=-7.818797213494435 pbc="F F F"
Fe       0.00000000       0.00000000       0.00000000       0.00000000       0.00000000       0.05082061
Fe       0.00000000       0.00000000       5.10606061       0.00000000       0.00000000      -0.05082061
2
Properties=species:S:1:pos:R:3:forces:R:3 energy=-7.815773192514608 pbc="F F F"
Fe       0.00000000       0.00000000       0.00000000       0.00000000       0.00000000       0.05062512
Fe       0.00000000       0.00000000       5.16565657       0.00000000       0.00000000      -0.05062512
2
Properties=species:S:1:pos:R:3:forces:R:3 energy=-7.812770834482927 pbc="F F F"
Fe       0.00000000       0.00000000       0.00000000       0.00000000       0.00000000       0.05006899
Fe       0.00000000       0.00000000       5.22525253       0.00000000       0.00000000      -0.05006899
2
Properties=species:S:1:pos:R:3:forces:R:3 energy=-7.8098189429459595 pbc="F F F"
Fe       0.00000000       0.00000000       0.00000000       0.00000000       0.00000000       0.04885485
Fe       0.00000000       0.00000000       5.28484848       0.00000000       0.00000000      -0.04885485
2
Properties=species:S:1:pos:R:3:forces:R:3 energy=-7.806966003318305 pbc="F F F"
Fe       0.00000000       0.00000000       0.00000000       0.00000000       0.00000000       0.04673637
Fe       0.00000000       0.00000000       5.34444444       0.00000000       0.00000000      -0.04673637
2
Properties=species:S:1:pos:R:3:forces:R:3 energy=-7.804268274624926 pbc="F F F"
Fe       0.00000000       0.00000000       0.00000000       0.00000000       0.00000000       0.04358411
Fe       0.00000000       0.00000000       5.40404040       0.00000000       0.00000000      -0.04358411
2
Properties=species:S:1:pos:R:3:forces:R:3 energy=-7.801790827122751 pbc="F F F"
Fe       0.00000000       0.00000000       0.00000000       0.00000000       0.00000000       0.03943800
Fe       0.00000000       0.00000000       5.46363636       0.00000000       0.00000000      -0.03943800
2
Properties=species:S:1:pos:R:3:forces:R:3 energy=-7.799583725785346 pbc="F F F"
Fe       0.00000000       0.00000000       0.00000000       0.00000000       0.00000000       0.03451378
Fe       0.00000000       0.00000000       5.52323232       0.00000000       0.00000000      -0.03451378
2
Properties=species:S:1:pos:R:3:forces:R:3 energy=-7.797684500811852 pbc="F F F"
Fe       0.00000000       0.00000000       0.00000000       0.00000000       0.00000000       0.02917502
Fe       0.00000000       0.00000000       5.58282828       0.00000000       0.00000000      -0.02917502
2
Properties=species:S:1:pos:R:3:forces:R:3 energy=-7.796106213234792 pbc="F F F"
Fe       0.00000000       0.00000000       0.00000000       0.00000000       0.00000000       0.02386827
Fe       0.00000000       0.00000000       5.64242424       0.00000000       0.00000000      -0.02386827
2
Properties=species:S:1:pos:R:3:forces:R:3 energy=-7.794830394229537 pbc="F F F"
Fe       0.00000000       0.00000000       0.00000000       0.00000000       0.00000000       0.01903215
Fe       0.00000000       0.00000000       5.70202020       0.00000000       0.00000000      -0.01903215
2
Properties=species:S:1:pos:R:3:forces:R:3 energy=-7.793820877351673 pbc="F F F"
Fe       0.00000000       0.00000000       0.00000000       0.00000000       0.00000000       0.01502300
Fe       0.00000000       0.00000000       5.76161616       0.00000000       0.00000000      -0.01502300
2
Properties=species:S:1:pos:R:3:forces:R:3 energy=-7.793019523633643 pbc="F F F"
Fe       0.00000000       0.00000000       0.00000000       0.00000000       0.00000000       0.01203615
Fe       0.00000000       0.00000000       5.82121212       0.00000000       0.00000000      -0.01203615
2
Properties=species:S:1:pos:R:3:forces:R:3 energy=-7.792365348132096 pbc="F F F"
Fe       0.00000000       0.00000000       0.00000000       0.00000000       0.00000000       0.01008350
Fe       0.00000000       0.00000000       5.88080808       0.00000000       0.00000000      -0.01008350
2
Properties=species:S:1:pos:R:3:forces:R:3 energy=-7.791801186936588 pbc="F F F"
Fe       0.00000000       0.00000000       0.00000000       0.00000000       0.00000000       0.00897560
Fe       0.00000000       0.00000000       5.94040404       0.00000000       0.00000000      -0.00897560
2
Properties=species:S:1:pos:R:3:forces:R:3 energy=-7.791285652152634 pbc="F F F"
Fe       0.00000000       0.00000000       0.00000000       0.00000000       0.00000000       0.00836448
Fe       0.00000000       0.00000000       6.00000000       0.00000000       0.00000000      -0.00836448
