2
Properties=species:S:1:pos:R:3:forces:R:3 energy=867117.1423861103 pbc="F F F"
Ga       0.00000000       0.00000000       0.00000000       0.00000000       0.00000000 -4479509.00000000
Ga       0.00000000       0.00000000       0.10000000       0.00000000       0.00000000 4479509.00000000
2
Properties=species:S:1:pos:R:3:forces:R:3 energy=576942.8298861103 pbc="F F F"
Ga       0.00000000       0.00000000       0.00000000       0.00000000       0.00000000 -4941327.50000000
Ga       0.00000000       0.00000000       0.15959596       0.00000000       0.00000000 4941327.50000000
2
Properties=species:S:1:pos:R:3:forces:R:3 energy=337208.98613611027 pbc="F F F"
Ga       0.00000000       0.00000000       0.00000000       0.00000000       0.00000000 -3574838.25000000
Ga       0.00000000       0.00000000       0.21919192       0.00000000       0.00000000 3574838.25000000
2
Properties=species:S:1:pos:R:3:forces:R:3 energy=160988.1111361103 pbc="F F F"
Ga       0.00000000       0.00000000       0.00000000       0.00000000       0.00000000 -2294946.75000000
Ga       0.00000000       0.00000000       0.27878788       0.00000000       0.00000000 2294946.75000000
2
Properties=species:S:1:pos:R:3:forces:R:3 energy=61778.04082361345 pbc="F F F"
Ga       0.00000000       0.00000000       0.00000000       0.00000000       0.00000000 -1099126.62500000
Ga       0.00000000       0.00000000       0.33838384       0.00000000       0.00000000 1099126.62500000
2
Properties=species:S:1:pos:R:3:forces:R:3 energy=18408.101370494787 pbc="F F F"
Ga       0.00000000       0.00000000       0.00000000       0.00000000       0.00000000 -397015.37500000
Ga       0.00000000       0.00000000       0.39797980       0.00000000       0.00000000  397015.37500000
2
Properties=species:S:1:pos:R:3:forces:R:3 energy=3411.038138079248 pbc="F F F"
Ga       0.00000000       0.00000000       0.00000000       0.00000000       0.00000000 -140558.82812500
Ga       0.00000000       0.00000000       0.45757576       0.00000000       0.00000000  140558.82812500
2
Properties=species:S:1:pos:R:3:forces:R:3 energy=-579.330148034558 pbc="F F F"
Ga       0.00000000       0.00000000       0.00000000       0.00000000       0.00000000  -22711.06445312
Ga       0.00000000       0.00000000       0.51717172       0.00000000       0.00000000   22711.06445312
2
Properties=species:S:1:pos:R:3:forces:R:3 energy=-1096.7020962450672 pbc="F F F"
Ga       0.00000000       0.00000000       0.00000000       0.00000000       0.00000000    5703.10888672
Ga       0.00000000       0.00000000       0.57676768       0.00000000       0.00000000   -5703.10888672
2
Properties=species:S:1:pos:R:3:forces:R:3 energy=-399.79178735015586 pbc="F F F"
Ga       0.00000000       0.00000000       0.00000000       0.00000000       0.00000000    7864.41748047
Ga       0.00000000       0.00000000       0.63636364       0.00000000       0.00000000   -7864.41748047
2
Properties=species:S:1:pos:R:3:forces:R:3 energy=-162.5493403557071 pbc="F F F"
Ga       0.00000000       0.00000000       0.00000000       0.00000000       0.00000000    1426.30456543
Ga       0.00000000       0.00000000       0.69595960       0.00000000       0.00000000   -1426.30456543
2
Properties=species:S:1:pos:R:3:forces:R:3 energy=-108.59033295313934 pbc="F F F"
Ga       0.00000000       0.00000000       0.00000000       0.00000000       0.00000000     934.76739502
Ga       0.00000000       0.00000000       0.75555556       0.00000000       0.00000000    -934.76739502
2
Properties=species:S:1:pos:R:3:forces:R:3 energy=-55.14004588199653 pbc="F F F"
Ga       0.00000000       0.00000000       0.00000000       0.00000000       0.00000000     798.65704346
Ga       0.00000000       0.00000000       0.81515152       0.00000000       0.00000000    -798.65704346
2
Properties=species:S:1:pos:R:3:forces:R:3 energy=-7.679115710447952 pbc="F F F"
Ga       0.00000000       0.00000000       0.00000000       0.00000000       0.00000000     733.23052979
Ga       0.00000000       0.00000000       0.87474747       0.00000000       0.00000000    -733.23052979
2
Properties=species:S:1:pos:R:3:forces:R:3 energy=28.999610910329277 pbc="F F F"
Ga       0.00000000       0.00000000       0.00000000       0.00000000       0.00000000     419.47204590
Ga       0.00000000       0.00000000       0.93434343       0.00000000       0.00000000    -419.47204590
2
Properties=species:S:1:pos:R:3:forces:R:3 energy=49.907292011018804 pbc="F F F"
Ga       0.00000000       0.00000000       0.00000000       0.00000000       0.00000000     335.27337646
Ga       0.00000000       0.00000000       0.99393939       0.00000000       0.00000000    -335.27337646
2
Properties=species:S:1:pos:R:3:forces:R:3 energy=55.47680803758147 pbc="F F F"
Ga       0.00000000       0.00000000       0.00000000       0.00000000       0.00000000     -82.87994385
Ga       0.00000000       0.00000000       1.05353535       0.00000000       0.00000000      82.87994385
2
Properties=species:S:1:pos:R:3:forces:R:3 energy=48.438780391264345 pbc="F F F"
Ga       0.00000000       0.00000000       0.00000000       0.00000000       0.00000000    -149.02194214
Ga       0.00000000       0.00000000       1.11313131       0.00000000       0.00000000     149.02194214
2
Properties=species:S:1:pos:R:3:forces:R:3 energy=39.5364685653555 pbc="F F F"
Ga       0.00000000       0.00000000       0.00000000       0.00000000       0.00000000    -146.77450562
Ga       0.00000000       0.00000000       1.17272727       0.00000000       0.00000000     146.77450562
2
Properties=species:S:1:pos:R:3:forces:R:3 energy=31.726026521350697 pbc="F F F"
Ga       0.00000000       0.00000000       0.00000000       0.00000000       0.00000000    -131.86679077
Ga       0.00000000       0.00000000       1.23232323       0.00000000       0.00000000     131.86679077
2
Properties=species:S:1:pos:R:3:forces:R:3 energy=24.2842011009947 pbc="F F F"
Ga       0.00000000       0.00000000       0.00000000       0.00000000       0.00000000    -119.08248901
Ga       0.00000000       0.00000000       1.29191919       0.00000000       0.00000000     119.08248901
2
Properties=species:S:1:pos:R:3:forces:R:3 energy=18.134223546374862 pbc="F F F"
Ga       0.00000000       0.00000000       0.00000000       0.00000000       0.00000000     -87.90975952
Ga       0.00000000       0.00000000       1.35151515       0.00000000       0.00000000      87.90975952
2
Properties=species:S:1:pos:R:3:forces:R:3 energy=13.506270906695427 pbc="F F F"
Ga       0.00000000       0.00000000       0.00000000       0.00000000       0.00000000     -68.11022949
Ga       0.00000000       0.00000000       1.41111111       0.00000000       0.00000000      68.11022949
2
Properties=species:S:1:pos:R:3:forces:R:3 energy=9.990833694205312 pbc="F F F"
Ga       0.00000000       0.00000000       0.00000000       0.00000000       0.00000000     -50.48920822
Ga       0.00000000       0.00000000       1.47070707       0.00000000       0.00000000      50.48920822
2
Properties=species:S:1:pos:R:3:forces:R:3 energy=7.4096326895985545 pbc="F F F"
Ga       0.00000000       0.00000000       0.00000000       0.00000000       0.00000000     -37.03641891
Ga       0.00000000       0.00000000       1.53030303       0.00000000       0.00000000      37.03641891
2
Properties=species:S:1:pos:R:3:forces:R:3 energy=5.483947224063769 pbc="F F F"
Ga       0.00000000       0.00000000       0.00000000       0.00000000       0.00000000     -28.36020279
Ga       0.00000000       0.00000000       1.58989899       0.00000000       0.00000000      28.36020279
2
Properties=species:S:1:pos:R:3:forces:R:3 energy=3.9627232672377644 pbc="F F F"
Ga       0.00000000       0.00000000       0.00000000       0.00000000       0.00000000     -22.67323112
Ga       0.00000000       0.00000000       1.64949495       0.00000000       0.00000000      22.67323112
2
Properties=species:S:1:pos:R:3:forces:R:3 energy=2.737497788360618 pbc="F F F"
Ga       0.00000000       0.00000000       0.00000000       0.00000000       0.00000000     -18.81106186
Ga       0.00000000       0.00000000       1.70909091       0.00000000       0.00000000      18.81106186
2
Properties=species:S:1:pos:R:3:forces:R:3 energy=1.7021738258192345 pbc="F F F"
Ga       0.00000000       0.00000000       0.00000000       0.00000000       0.00000000     -16.22485733
Ga       0.00000000       0.00000000       1.76868687       0.00000000       0.00000000      16.22485733
2
Properties=species:S:1:pos:R:3:forces:R:3 energy=0.77149991040408 pbc="F F F"
Ga       0.00000000       0.00000000       0.00000000       0.00000000       0.00000000     -14.86440563
Ga       0.00000000       0.00000000       1.82828283       0.00000000       0.00000000      14.86440563
2
Properties=species:S:1:pos:R:3:forces:R:3 energy=-0.03678914836078417 pbc="F F F"
Ga       0.00000000       0.00000000       0.00000000       0.00000000       0.00000000     -12.25114346
Ga       0.00000000       0.00000000       1.88787879       0.00000000       0.00000000      12.25114346
2
Properties=species:S:1:pos:R:3:forces:R:3 energy=-0.6941467193870874 pbc="F F F"
Ga       0.00000000       0.00000000       0.00000000       0.00000000       0.00000000      -9.84778881
Ga       0.00000000       0.00000000       1.94747475       0.00000000       0.00000000       9.84778881
2
Properties=species:S:1:pos:R:3:forces:R:3 energy=-1.2181950581186367 pbc="F F F"
Ga       0.00000000       0.00000000       0.00000000       0.00000000       0.00000000      -7.79526424
Ga       0.00000000       0.00000000       2.00707071       0.00000000       0.00000000       7.79526424
2
Properties=species:S:1:pos:R:3:forces:R:3 energy=-1.6264011326445942 pbc="F F F"
Ga       0.00000000       0.00000000       0.00000000       0.00000000       0.00000000      -5.94294024
Ga       0.00000000       0.00000000       2.06666667       0.00000000       0.00000000       5.94294024
2
Properties=species:S:1:pos:R:3:forces:R:3 energy=-1.9334869717784307 pbc="F F F"
Ga       0.00000000       0.00000000       0.00000000       0.00000000       0.00000000      -4.40452814
Ga       0.00000000       0.00000000       2.12626263       0.00000000       0.00000000       4.40452814
2
Properties=species:S:1:pos:R:3:forces:R:3 energy=-2.1574666198857497 pbc="F F F"
Ga       0.00000000       0.00000000       0.00000000       0.00000000       0.00000000      -3.18173981
Ga       0.00000000       0.00000000       2.18585859       0.00000000       0.00000000       3.18173981
2
Properties=species:S:1:pos:R:3:forces:R:3 energy=-2.3189796737604063 pbc="F F F"
Ga       0.00000000       0.00000000       0.00000000       0.00000000       0.00000000      -2.28224087
Ga       0.00000000       0.00000000       2.24545455       0.00000000       0.00000000       2.28224087
2
Properties=species:S:1:pos:R:3:forces:R:3 energy=-2.4353690791612195 pbc="F F F"
Ga       0.00000000       0.00000000       0.00000000       0.00000000       0.00000000      -1.65942764
Ga       0.00000000       0.00000000       2.30505051       0.00000000       0.00000000       1.65942764
2
Properties=species:S:1:pos:R:3:forces:R:3 energy=-2.5189813869088424 pbc="F F F"
Ga       0.00000000       0.00000000       0.00000000       0.00000000       0.00000000      -1.16270518
Ga       0.00000000       0.00000000       2.36464646       0.00000000       0.00000000       1.16270518
2
Properties=species:S:1:pos:R:3:forces:R:3 energy=-2.5759377154458774 pbc="F F F"
Ga       0.00000000       0.00000000       0.00000000       0.00000000       0.00000000      -0.75969875
Ga       0.00000000       0.00000000       2.42424242       0.00000000       0.00000000       0.75969875
2
Properties=species:S:1:pos:R:3:forces:R:3 energy=-2.61069908332019 pbc="F F F"
Ga       0.00000000       0.00000000       0.00000000       0.00000000       0.00000000      -0.41828007
Ga       0.00000000       0.00000000       2.48383838       0.00000000       0.00000000       0.41828007
2
Properties=species:S:1:pos:R:3:forces:R:3 energy=-2.626944535817896 pbc="F F F"
Ga       0.00000000       0.00000000       0.00000000       0.00000000       0.00000000      -0.13615619
Ga       0.00000000       0.00000000       2.54343434       0.00000000       0.00000000       0.13615619
2
Properties=species:S:1:pos:R:3:forces:R:3 energy=-2.628471754138853 pbc="F F F"
Ga       0.00000000       0.00000000       0.00000000       0.00000000       0.00000000       0.07009146
Ga       0.00000000       0.00000000       2.60303030       0.00000000       0.00000000      -0.07009146
2
Properties=species:S:1:pos:R:3:forces:R:3 energy=-2.619942684176556 pbc="F F F"
Ga       0.00000000       0.00000000       0.00000000       0.00000000       0.00000000       0.20983827
Ga       0.00000000       0.00000000       2.66262626       0.00000000       0.00000000      -0.20983827
2
Properties=species:S:1:pos:R:3:forces:R:3 energy=-2.6037394960933726 pbc="F F F"
Ga       0.00000000       0.00000000       0.00000000       0.00000000       0.00000000       0.33373076
Ga       0.00000000       0.00000000       2.72222222       0.00000000       0.00000000      -0.33373076
2
Properties=species:S:1:pos:R:3:forces:R:3 energy=-2.5802146319747497 pbc="F F F"
Ga       0.00000000       0.00000000       0.00000000       0.00000000       0.00000000       0.45415893
Ga       0.00000000       0.00000000       2.78181818       0.00000000       0.00000000      -0.45415893
2
Properties=species:S:1:pos:R:3:forces:R:3 energy=-2.54998886488564 pbc="F F F"
Ga       0.00000000       0.00000000       0.00000000       0.00000000       0.00000000       0.55543762
Ga       0.00000000       0.00000000       2.84141414       0.00000000       0.00000000      -0.55543762
2
Properties=species:S:1:pos:R:3:forces:R:3 energy=-2.5147002390128224 pbc="F F F"
Ga       0.00000000       0.00000000       0.00000000       0.00000000       0.00000000       0.62262934
Ga       0.00000000       0.00000000       2.90101010       0.00000000       0.00000000      -0.62262934
2
Properties=species:S:1:pos:R:3:forces:R:3 energy=-2.476451457881219 pbc="F F F"
Ga       0.00000000       0.00000000       0.00000000       0.00000000       0.00000000       0.65650564
Ga       0.00000000       0.00000000       2.96060606       0.00000000       0.00000000      -0.65650564
2
Properties=species:S:1:pos:R:3:forces:R:3 energy=-2.4367834724888633 pbc="F F F"
Ga       0.00000000       0.00000000       0.00000000       0.00000000       0.00000000       0.67344284
Ga       0.00000000       0.00000000       3.02020202       0.00000000       0.00000000      -0.67344284
2
Properties=species:S:1:pos:R:3:forces:R:3 energy=-2.3962465130799973 pbc="F F F"
Ga       0.00000000       0.00000000       0.00000000       0.00000000       0.00000000       0.68656778
Ga       0.00000000       0.00000000       3.07979798       0.00000000       0.00000000      -0.68656778
2
Properties=species:S:1:pos:R:3:forces:R:3 energy=-2.3550376824296846 pbc="F F F"
Ga       0.00000000       0.00000000       0.00000000       0.00000000       0.00000000       0.69520450
Ga       0.00000000       0.00000000       3.13939394       0.00000000       0.00000000      -0.69520450
2
Properties=species:S:1:pos:R:3:forces:R:3 energy=-2.313561638751786 pbc="F F F"
Ga       0.00000000       0.00000000       0.00000000       0.00000000       0.00000000       0.69502962
Ga       0.00000000       0.00000000       3.19898990       0.00000000       0.00000000      -0.69502962
2
Properties=species:S:1:pos:R:3:forces:R:3 energy=-2.272398103405539 pbc="F F F"
Ga       0.00000000       0.00000000       0.00000000       0.00000000       0.00000000       0.68473428
Ga       0.00000000       0.00000000       3.25858586       0.00000000       0.00000000      -0.68473428
2
Properties=species:S:1:pos:R:3:forces:R:3 energy=-2.232134520995092 pbc="F F F"
Ga       0.00000000       0.00000000       0.00000000       0.00000000       0.00000000       0.66503084
Ga       0.00000000       0.00000000       3.31818182       0.00000000       0.00000000      -0.66503084
2
Properties=species:S:1:pos:R:3:forces:R:3 energy=-2.1932816839248503 pbc="F F F"
Ga       0.00000000       0.00000000       0.00000000       0.00000000       0.00000000       0.63778436
Ga       0.00000000       0.00000000       3.37777778       0.00000000       0.00000000      -0.63778436
2
Properties=species:S:1:pos:R:3:forces:R:3 energy=-2.156213210110722 pbc="F F F"
Ga       0.00000000       0.00000000       0.00000000       0.00000000       0.00000000       0.60567164
Ga       0.00000000       0.00000000       3.43737374       0.00000000       0.00000000      -0.60567164
2
Properties=species:S:1:pos:R:3:forces:R:3 energy=-2.1211246687377727 pbc="F F F"
Ga       0.00000000       0.00000000       0.00000000       0.00000000       0.00000000       0.57181942
Ga       0.00000000       0.00000000       3.49696970       0.00000000       0.00000000      -0.57181942
2
Properties=species:S:1:pos:R:3:forces:R:3 energy=-2.08804044224255 pbc="F F F"
Ga       0.00000000       0.00000000       0.00000000       0.00000000       0.00000000       0.53875089
Ga       0.00000000       0.00000000       3.55656566       0.00000000       0.00000000      -0.53875089
2
Properties=species:S:1:pos:R:3:forces:R:3 energy=-2.05687544539922 pbc="F F F"
Ga       0.00000000       0.00000000       0.00000000       0.00000000       0.00000000       0.50737149
Ga       0.00000000       0.00000000       3.61616162       0.00000000       0.00000000      -0.50737149
2
Properties=species:S:1:pos:R:3:forces:R:3 energy=-2.027540034006326 pbc="F F F"
Ga       0.00000000       0.00000000       0.00000000       0.00000000       0.00000000       0.47725406
Ga       0.00000000       0.00000000       3.67575758       0.00000000       0.00000000      -0.47725406
2
Properties=species:S:1:pos:R:3:forces:R:3 energy=-1.9999775449817314 pbc="F F F"
Ga       0.00000000       0.00000000       0.00000000       0.00000000       0.00000000       0.44777140
Ga       0.00000000       0.00000000       3.73535354       0.00000000       0.00000000      -0.44777140
2
Properties=species:S:1:pos:R:3:forces:R:3 energy=-1.9741587025335943 pbc="F F F"
Ga       0.00000000       0.00000000       0.00000000       0.00000000       0.00000000       0.41884118
Ga       0.00000000       0.00000000       3.79494949       0.00000000       0.00000000      -0.41884118
2
Properties=species:S:1:pos:R:3:forces:R:3 energy=-1.9500365530491737 pbc="F F F"
Ga       0.00000000       0.00000000       0.00000000       0.00000000       0.00000000       0.39088160
Ga       0.00000000       0.00000000       3.85454545       0.00000000       0.00000000      -0.39088160
2
Properties=species:S:1:pos:R:3:forces:R:3 energy=-1.9275395247815437 pbc="F F F"
Ga       0.00000000       0.00000000       0.00000000       0.00000000       0.00000000       0.36436436
Ga       0.00000000       0.00000000       3.91414141       0.00000000       0.00000000      -0.36436436
2
Properties=species:S:1:pos:R:3:forces:R:3 energy=-1.906574943107739 pbc="F F F"
Ga       0.00000000       0.00000000       0.00000000       0.00000000       0.00000000       0.33947083
Ga       0.00000000       0.00000000       3.97373737       0.00000000       0.00000000      -0.33947083
2
Properties=species:S:1:pos:R:3:forces:R:3 energy=-1.8870476461848589 pbc="F F F"
Ga       0.00000000       0.00000000       0.00000000       0.00000000       0.00000000       0.31611198
Ga       0.00000000       0.00000000       4.03333333       0.00000000       0.00000000      -0.31611198
2
Properties=species:S:1:pos:R:3:forces:R:3 energy=-1.8688686630535791 pbc="F F F"
Ga       0.00000000       0.00000000       0.00000000       0.00000000       0.00000000       0.29415196
Ga       0.00000000       0.00000000       4.09292929       0.00000000       0.00000000      -0.29415196
2
Properties=species:S:1:pos:R:3:forces:R:3 energy=-1.8519580746611006 pbc="F F F"
Ga       0.00000000       0.00000000       0.00000000       0.00000000       0.00000000       0.27360669
Ga       0.00000000       0.00000000       4.15252525       0.00000000       0.00000000      -0.27360669
2
Properties=species:S:1:pos:R:3:forces:R:3 energy=-1.8362264172119802 pbc="F F F"
Ga       0.00000000       0.00000000       0.00000000       0.00000000       0.00000000       0.25465417
Ga       0.00000000       0.00000000       4.21212121       0.00000000       0.00000000      -0.25465417
2
Properties=species:S:1:pos:R:3:forces:R:3 energy=-1.821569389442058 pbc="F F F"
Ga       0.00000000       0.00000000       0.00000000       0.00000000       0.00000000       0.23751704
Ga       0.00000000       0.00000000       4.27171717       0.00000000       0.00000000      -0.23751704
2
Properties=species:S:1:pos:R:3:forces:R:3 energy=-1.8078764135125494 pbc="F F F"
Ga       0.00000000       0.00000000       0.00000000       0.00000000       0.00000000       0.22234000
Ga       0.00000000       0.00000000       4.33131313       0.00000000       0.00000000      -0.22234000
2
Properties=species:S:1:pos:R:3:forces:R:3 energy=-1.795029643321864 pbc="F F F"
Ga       0.00000000       0.00000000       0.00000000       0.00000000       0.00000000       0.20911270
Ga       0.00000000       0.00000000       4.39090909       0.00000000       0.00000000      -0.20911270
2
Properties=species:S:1:pos:R:3:forces:R:3 energy=-1.7829176375599074 pbc="F F F"
Ga       0.00000000       0.00000000       0.00000000       0.00000000       0.00000000       0.19765164
Ga       0.00000000       0.00000000       4.45050505       0.00000000       0.00000000      -0.19765164
2
Properties=species:S:1:pos:R:3:forces:R:3 energy=-1.771443488114526 pbc="F F F"
Ga       0.00000000       0.00000000       0.00000000       0.00000000       0.00000000       0.18763356
Ga       0.00000000       0.00000000       4.51010101       0.00000000       0.00000000      -0.18763356
2
Properties=species:S:1:pos:R:3:forces:R:3 energy=-1.760532234054132 pbc="F F F"
Ga       0.00000000       0.00000000       0.00000000       0.00000000       0.00000000       0.17864855
Ga       0.00000000       0.00000000       4.56969697       0.00000000       0.00000000      -0.17864855
2
Properties=species:S:1:pos:R:3:forces:R:3 energy=-1.75013662485529 pbc="F F F"
Ga       0.00000000       0.00000000       0.00000000       0.00000000       0.00000000       0.17029315
Ga       0.00000000       0.00000000       4.62929293       0.00000000       0.00000000      -0.17029315
2
Properties=species:S:1:pos:R:3:forces:R:3 energy=-1.740227860923916 pbc="F F F"
Ga       0.00000000       0.00000000       0.00000000       0.00000000       0.00000000       0.16225830
Ga       0.00000000       0.00000000       4.68888889       0.00000000       0.00000000      -0.16225830
2
Properties=species:S:1:pos:R:3:forces:R:3 energy=-1.7307931777312637 pbc="F F F"
Ga       0.00000000       0.00000000       0.00000000       0.00000000       0.00000000       0.15439957
Ga       0.00000000       0.00000000       4.74848485       0.00000000       0.00000000      -0.15439957
2
Properties=species:S:1:pos:R:3:forces:R:3 energy=-1.7218204650637114 pbc="F F F"
Ga       0.00000000       0.00000000       0.00000000       0.00000000       0.00000000       0.14676361
Ga       0.00000000       0.00000000       4.80808081       0.00000000       0.00000000      -0.14676361
2
Properties=species:S:1:pos:R:3:forces:R:3 energy=-1.7132915865508123 pbc="F F F"
Ga       0.00000000       0.00000000       0.00000000       0.00000000       0.00000000       0.13955034
Ga       0.00000000       0.00000000       4.86767677       0.00000000       0.00000000      -0.13955034
2
Properties=species:S:1:pos:R:3:forces:R:3 energy=-1.705174191070229 pbc="F F F"
Ga       0.00000000       0.00000000       0.00000000       0.00000000       0.00000000       0.13302153
Ga       0.00000000       0.00000000       4.92727273       0.00000000       0.00000000      -0.13302153
2
Properties=species:S:1:pos:R:3:forces:R:3 energy=-1.6974187867844317 pbc="F F F"
Ga       0.00000000       0.00000000       0.00000000       0.00000000       0.00000000       0.12737033
Ga       0.00000000       0.00000000       4.98686869       0.00000000       0.00000000      -0.12737033
2
Properties=species:S:1:pos:R:3:forces:R:3 energy=-1.6899749773627426 pbc="F F F"
Ga       0.00000000       0.00000000       0.00000000       0.00000000       0.00000000       0.12260918
Ga       0.00000000       0.00000000       5.04646465       0.00000000       0.00000000      -0.12260918
2
Properties=species:S:1:pos:R:3:forces:R:3 energy=-1.6827923586348525 pbc="F F F"
Ga       0.00000000       0.00000000       0.00000000       0.00000000       0.00000000       0.11849938
Ga       0.00000000       0.00000000       5.10606061       0.00000000       0.00000000      -0.11849938
2
Properties=species:S:1:pos:R:3:forces:R:3 energy=-1.6758467778966566 pbc="F F F"
Ga       0.00000000       0.00000000       0.00000000       0.00000000       0.00000000       0.11455217
Ga       0.00000000       0.00000000       5.16565657       0.00000000       0.00000000      -0.11455217
2
Properties=species:S:1:pos:R:3:forces:R:3 energy=-1.6691475038906474 pbc="F F F"
Ga       0.00000000       0.00000000       0.00000000       0.00000000       0.00000000       0.11012499
Ga       0.00000000       0.00000000       5.22525253       0.00000000       0.00000000      -0.11012499
2
Properties=species:S:1:pos:R:3:forces:R:3 energy=-1.6627443556046226 pbc="F F F"
Ga       0.00000000       0.00000000       0.00000000       0.00000000       0.00000000       0.10454910
Ga       0.00000000       0.00000000       5.28484848       0.00000000       0.00000000      -0.10454910
2
Properties=species:S:1:pos:R:3:forces:R:3 energy=-1.6567192126535915 pbc="F F F"
Ga       0.00000000       0.00000000       0.00000000       0.00000000       0.00000000       0.09730784
Ga       0.00000000       0.00000000       5.34444444       0.00000000       0.00000000      -0.09730784
2
Properties=species:S:1:pos:R:3:forces:R:3 energy=-1.6511836041674937 pbc="F F F"
Ga       0.00000000       0.00000000       0.00000000       0.00000000       0.00000000       0.08817051
Ga       0.00000000       0.00000000       5.40404040       0.00000000       0.00000000      -0.08817051
2
Properties=species:S:1:pos:R:3:forces:R:3 energy=-1.6462434957014038 pbc="F F F"
Ga       0.00000000       0.00000000       0.00000000       0.00000000       0.00000000       0.07726723
Ga       0.00000000       0.00000000       5.46363636       0.00000000       0.00000000      -0.07726723
2
Properties=species:S:1:pos:R:3:forces:R:3 energy=-1.6419993177459289 pbc="F F F"
Ga       0.00000000       0.00000000       0.00000000       0.00000000       0.00000000       0.06510036
Ga       0.00000000       0.00000000       5.52323232       0.00000000       0.00000000      -0.06510036
2
Properties=species:S:1:pos:R:3:forces:R:3 energy=-1.6384964237639998 pbc="F F F"
Ga       0.00000000       0.00000000       0.00000000       0.00000000       0.00000000       0.05245488
Ga       0.00000000       0.00000000       5.58282828       0.00000000       0.00000000      -0.05245488
2
Properties=species:S:1:pos:R:3:forces:R:3 energy=-1.6357379655860977 pbc="F F F"
Ga       0.00000000       0.00000000       0.00000000       0.00000000       0.00000000       0.04027151
Ga       0.00000000       0.00000000       5.64242424       0.00000000       0.00000000      -0.04027151
2
Properties=species:S:1:pos:R:3:forces:R:3 energy=-1.6336692417313206 pbc="F F F"
Ga       0.00000000       0.00000000       0.00000000       0.00000000       0.00000000       0.02945609
Ga       0.00000000       0.00000000       5.70202020       0.00000000       0.00000000      -0.02945609
2
Properties=species:S:1:pos:R:3:forces:R:3 energy=-1.6321848570923552 pbc="F F F"
Ga       0.00000000       0.00000000       0.00000000       0.00000000       0.00000000       0.02073701
Ga       0.00000000       0.00000000       5.76161616       0.00000000       0.00000000      -0.02073701
2
Properties=species:S:1:pos:R:3:forces:R:3 energy=-1.6311478185965622 pbc="F F F"
Ga       0.00000000       0.00000000       0.00000000       0.00000000       0.00000000       0.01449359
Ga       0.00000000       0.00000000       5.82121212       0.00000000       0.00000000      -0.01449359
2
Properties=species:S:1:pos:R:3:forces:R:3 energy=-1.6304091480939475 pbc="F F F"
Ga       0.00000000       0.00000000       0.00000000       0.00000000       0.00000000       0.01070013
Ga       0.00000000       0.00000000       5.88080808       0.00000000       0.00000000      -0.01070013
2
Properties=species:S:1:pos:R:3:forces:R:3 energy=-1.6298326541307246 pbc="F F F"
Ga       0.00000000       0.00000000       0.00000000       0.00000000       0.00000000       0.00888444
Ga       0.00000000       0.00000000       5.94040404       0.00000000       0.00000000      -0.00888444
2
Properties=species:S:1:pos:R:3:forces:R:3 energy=-1.6293269505229562 pbc="F F F"
Ga       0.00000000       0.00000000       0.00000000       0.00000000       0.00000000       0.00820687
Ga       0.00000000       0.00000000       6.00000000       0.00000000       0.00000000      -0.00820687
