2
Properties=species:S:1:pos:R:3:forces:R:3 energy=-15362290.102357516 pbc="F F F"
Gd       0.00000000       0.00000000       0.00000000       0.00000000       0.00000000 84268144.00000000
Gd       0.00000000       0.00000000       0.10000000       0.00000000       0.00000000 -84268144.00000000
2
Properties=species:S:1:pos:R:3:forces:R:3 energy=-9986736.102357516 pbc="F F F"
Gd       0.00000000       0.00000000       0.00000000       0.00000000       0.00000000 90092320.00000000
Gd       0.00000000       0.00000000       0.15959596       0.00000000       0.00000000 -90092320.00000000
2
Properties=species:S:1:pos:R:3:forces:R:3 energy=-5185313.602357516 pbc="F F F"
Gd       0.00000000       0.00000000       0.00000000       0.00000000       0.00000000 68006248.00000000
Gd       0.00000000       0.00000000       0.21919192       0.00000000       0.00000000 -68006248.00000000
2
Properties=species:S:1:pos:R:3:forces:R:3 energy=-2044176.727357516 pbc="F F F"
Gd       0.00000000       0.00000000       0.00000000       0.00000000       0.00000000 37570656.00000000
Gd       0.00000000       0.00000000       0.27878788       0.00000000       0.00000000 -37570656.00000000
2
Properties=species:S:1:pos:R:3:forces:R:3 energy=-608817.3523575162 pbc="F F F"
Gd       0.00000000       0.00000000       0.00000000       0.00000000       0.00000000 14200818.00000000
Gd       0.00000000       0.00000000       0.33838384       0.00000000       0.00000000 -14200818.00000000
2
Properties=species:S:1:pos:R:3:forces:R:3 energy=-124053.22735751615 pbc="F F F"
Gd       0.00000000       0.00000000       0.00000000       0.00000000       0.00000000 3827834.25000000
Gd       0.00000000       0.00000000       0.39797980       0.00000000       0.00000000 -3827834.25000000
2
Properties=species:S:1:pos:R:3:forces:R:3 energy=-13768.502748128487 pbc="F F F"
Gd       0.00000000       0.00000000       0.00000000       0.00000000       0.00000000  595655.50000000
Gd       0.00000000       0.00000000       0.45757576       0.00000000       0.00000000 -595655.50000000
2
Properties=species:S:1:pos:R:3:forces:R:3 energy=-588.2948623736273 pbc="F F F"
Gd       0.00000000       0.00000000       0.00000000       0.00000000       0.00000000   38678.52734375
Gd       0.00000000       0.00000000       0.51717172       0.00000000       0.00000000  -38678.52734375
2
Properties=species:S:1:pos:R:3:forces:R:3 energy=-18.94088132388267 pbc="F F F"
Gd       0.00000000       0.00000000       0.00000000       0.00000000       0.00000000   22860.13867188
Gd       0.00000000       0.00000000       0.57676768       0.00000000       0.00000000  -22860.13867188
2
Properties=species:S:1:pos:R:3:forces:R:3 energy=760.7418808664629 pbc="F F F"
Gd       0.00000000       0.00000000       0.00000000       0.00000000       0.00000000    5933.82812500
Gd       0.00000000       0.00000000       0.63636364       0.00000000       0.00000000   -5933.82812500
2
Properties=species:S:1:pos:R:3:forces:R:3 energy=919.6682115088969 pbc="F F F"
Gd       0.00000000       0.00000000       0.00000000       0.00000000       0.00000000    1081.64294434
Gd       0.00000000       0.00000000       0.69595960       0.00000000       0.00000000   -1081.64294434
2
Properties=species:S:1:pos:R:3:forces:R:3 energy=840.7825915184224 pbc="F F F"
Gd       0.00000000       0.00000000       0.00000000       0.00000000       0.00000000   -2928.65405273
Gd       0.00000000       0.00000000       0.75555556       0.00000000       0.00000000    2928.65405273
2
Properties=species:S:1:pos:R:3:forces:R:3 energy=649.6111439482497 pbc="F F F"
Gd       0.00000000       0.00000000       0.00000000       0.00000000       0.00000000   -2987.07861328
Gd       0.00000000       0.00000000       0.81515152       0.00000000       0.00000000    2987.07861328
2
Properties=species:S:1:pos:R:3:forces:R:3 energy=422.9396964477693 pbc="F F F"
Gd       0.00000000       0.00000000       0.00000000       0.00000000       0.00000000   -3834.40551758
Gd       0.00000000       0.00000000       0.87474747       0.00000000       0.00000000    3834.40551758
2
Properties=species:S:1:pos:R:3:forces:R:3 energy=234.59635880887697 pbc="F F F"
Gd       0.00000000       0.00000000       0.00000000       0.00000000       0.00000000   -2542.15258789
Gd       0.00000000       0.00000000       0.93434343       0.00000000       0.00000000    2542.15258789
2
Properties=species:S:1:pos:R:3:forces:R:3 energy=115.39213569558729 pbc="F F F"
Gd       0.00000000       0.00000000       0.00000000       0.00000000       0.00000000   -1529.37402344
Gd       0.00000000       0.00000000       0.99393939       0.00000000       0.00000000    1529.37402344
2
Properties=species:S:1:pos:R:3:forces:R:3 energy=50.6566589449984 pbc="F F F"
Gd       0.00000000       0.00000000       0.00000000       0.00000000       0.00000000    -708.38604736
Gd       0.00000000       0.00000000       1.05353535       0.00000000       0.00000000     708.38604736
2
Properties=species:S:1:pos:R:3:forces:R:3 energy=19.217622559675707 pbc="F F F"
Gd       0.00000000       0.00000000       0.00000000       0.00000000       0.00000000    -376.40744019
Gd       0.00000000       0.00000000       1.11313131       0.00000000       0.00000000     376.40744019
2
Properties=species:S:1:pos:R:3:forces:R:3 energy=2.390029031710621 pbc="F F F"
Gd       0.00000000       0.00000000       0.00000000       0.00000000       0.00000000    -204.78675842
Gd       0.00000000       0.00000000       1.17272727       0.00000000       0.00000000     204.78675842
2
Properties=species:S:1:pos:R:3:forces:R:3 energy=-6.901063198000962 pbc="F F F"
Gd       0.00000000       0.00000000       0.00000000       0.00000000       0.00000000    -111.97002411
Gd       0.00000000       0.00000000       1.23232323       0.00000000       0.00000000     111.97002411
2
Properties=species:S:1:pos:R:3:forces:R:3 energy=-12.123814670032484 pbc="F F F"
Gd       0.00000000       0.00000000       0.00000000       0.00000000       0.00000000     -67.63825226
Gd       0.00000000       0.00000000       1.29191919       0.00000000       0.00000000      67.63825226
2
Properties=species:S:1:pos:R:3:forces:R:3 energy=-15.190334670684923 pbc="F F F"
Gd       0.00000000       0.00000000       0.00000000       0.00000000       0.00000000     -37.51502609
Gd       0.00000000       0.00000000       1.35151515       0.00000000       0.00000000      37.51502609
2
Properties=species:S:1:pos:R:3:forces:R:3 energy=-16.95555775295692 pbc="F F F"
Gd       0.00000000       0.00000000       0.00000000       0.00000000       0.00000000     -23.69017792
Gd       0.00000000       0.00000000       1.41111111       0.00000000       0.00000000      23.69017792
2
Properties=species:S:1:pos:R:3:forces:R:3 energy=-18.106957093590374 pbc="F F F"
Gd       0.00000000       0.00000000       0.00000000       0.00000000       0.00000000     -13.95933342
Gd       0.00000000       0.00000000       1.47070707       0.00000000       0.00000000      13.95933342
2
Properties=species:S:1:pos:R:3:forces:R:3 energy=-18.55690322229251 pbc="F F F"
Gd       0.00000000       0.00000000       0.00000000       0.00000000       0.00000000      -2.37651372
Gd       0.00000000       0.00000000       1.53030303       0.00000000       0.00000000       2.37651372
2
Properties=species:S:1:pos:R:3:forces:R:3 energy=-18.534491407978386 pbc="F F F"
Gd       0.00000000       0.00000000       0.00000000       0.00000000       0.00000000       2.14269328
Gd       0.00000000       0.00000000       1.58989899       0.00000000       0.00000000      -2.14269328
2
Properties=species:S:1:pos:R:3:forces:R:3 energy=-18.351107556305816 pbc="F F F"
Gd       0.00000000       0.00000000       0.00000000       0.00000000       0.00000000       3.79523373
Gd       0.00000000       0.00000000       1.64949495       0.00000000       0.00000000      -3.79523373
2
Properties=species:S:1:pos:R:3:forces:R:3 energy=-18.163283720453617 pbc="F F F"
Gd       0.00000000       0.00000000       0.00000000       0.00000000       0.00000000       1.93143618
Gd       0.00000000       0.00000000       1.70909091       0.00000000       0.00000000      -1.93143618
2
Properties=species:S:1:pos:R:3:forces:R:3 energy=-18.11717784003723 pbc="F F F"
Gd       0.00000000       0.00000000       0.00000000       0.00000000       0.00000000      -0.19197427
Gd       0.00000000       0.00000000       1.76868687       0.00000000       0.00000000       0.19197427
2
Properties=species:S:1:pos:R:3:forces:R:3 energy=-18.19066248479904 pbc="F F F"
Gd       0.00000000       0.00000000       0.00000000       0.00000000       0.00000000      -2.40851140
Gd       0.00000000       0.00000000       1.82828283       0.00000000       0.00000000       2.40851140
2
Properties=species:S:1:pos:R:3:forces:R:3 energy=-18.38428280798761 pbc="F F F"
Gd       0.00000000       0.00000000       0.00000000       0.00000000       0.00000000      -4.01978731
Gd       0.00000000       0.00000000       1.88787879       0.00000000       0.00000000       4.01978731
2
Properties=species:S:1:pos:R:3:forces:R:3 energy=-18.672026002474333 pbc="F F F"
Gd       0.00000000       0.00000000       0.00000000       0.00000000       0.00000000      -5.56957912
Gd       0.00000000       0.00000000       1.94747475       0.00000000       0.00000000       5.56957912
2
Properties=species:S:1:pos:R:3:forces:R:3 energy=-19.037719247384715 pbc="F F F"
Gd       0.00000000       0.00000000       0.00000000       0.00000000       0.00000000      -6.64991283
Gd       0.00000000       0.00000000       2.00707071       0.00000000       0.00000000       6.64991283
2
Properties=species:S:1:pos:R:3:forces:R:3 energy=-19.46096868329211 pbc="F F F"
Gd       0.00000000       0.00000000       0.00000000       0.00000000       0.00000000      -7.45434666
Gd       0.00000000       0.00000000       2.06666667       0.00000000       0.00000000       7.45434666
2
Properties=species:S:1:pos:R:3:forces:R:3 energy=-19.90631045120816 pbc="F F F"
Gd       0.00000000       0.00000000       0.00000000       0.00000000       0.00000000      -7.35928106
Gd       0.00000000       0.00000000       2.12626263       0.00000000       0.00000000       7.35928106
2
Properties=species:S:1:pos:R:3:forces:R:3 energy=-20.335406267069704 pbc="F F F"
Gd       0.00000000       0.00000000       0.00000000       0.00000000       0.00000000      -7.07485819
Gd       0.00000000       0.00000000       2.18585859       0.00000000       0.00000000       7.07485819
2
Properties=species:S:1:pos:R:3:forces:R:3 energy=-20.748821960849323 pbc="F F F"
Gd       0.00000000       0.00000000       0.00000000       0.00000000       0.00000000      -6.76621246
Gd       0.00000000       0.00000000       2.24545455       0.00000000       0.00000000       6.76621246
2
Properties=species:S:1:pos:R:3:forces:R:3 energy=-21.138893089812576 pbc="F F F"
Gd       0.00000000       0.00000000       0.00000000       0.00000000       0.00000000      -6.28543234
Gd       0.00000000       0.00000000       2.30505051       0.00000000       0.00000000       6.28543234
2
Properties=species:S:1:pos:R:3:forces:R:3 energy=-21.49185924896681 pbc="F F F"
Gd       0.00000000       0.00000000       0.00000000       0.00000000       0.00000000      -5.52918530
Gd       0.00000000       0.00000000       2.36464646       0.00000000       0.00000000       5.52918530
2
Properties=species:S:1:pos:R:3:forces:R:3 energy=-21.798507089103566 pbc="F F F"
Gd       0.00000000       0.00000000       0.00000000       0.00000000       0.00000000      -4.78139067
Gd       0.00000000       0.00000000       2.42424242       0.00000000       0.00000000       4.78139067
2
Properties=species:S:1:pos:R:3:forces:R:3 energy=-22.063871104616332 pbc="F F F"
Gd       0.00000000       0.00000000       0.00000000       0.00000000       0.00000000      -4.13933992
Gd       0.00000000       0.00000000       2.48383838       0.00000000       0.00000000       4.13933992
2
Properties=species:S:1:pos:R:3:forces:R:3 energy=-22.29330604707087 pbc="F F F"
Gd       0.00000000       0.00000000       0.00000000       0.00000000       0.00000000      -3.57247257
Gd       0.00000000       0.00000000       2.54343434       0.00000000       0.00000000       3.57247257
2
Properties=species:S:1:pos:R:3:forces:R:3 energy=-22.491876732033827 pbc="F F F"
Gd       0.00000000       0.00000000       0.00000000       0.00000000       0.00000000      -3.11466908
Gd       0.00000000       0.00000000       2.60303030       0.00000000       0.00000000       3.11466908
2
Properties=species:S:1:pos:R:3:forces:R:3 energy=-22.667112180806413 pbc="F F F"
Gd       0.00000000       0.00000000       0.00000000       0.00000000       0.00000000      -2.78238010
Gd       0.00000000       0.00000000       2.66262626       0.00000000       0.00000000       2.78238010
2
Properties=species:S:1:pos:R:3:forces:R:3 energy=-22.82456715046378 pbc="F F F"
Gd       0.00000000       0.00000000       0.00000000       0.00000000       0.00000000      -2.50375533
Gd       0.00000000       0.00000000       2.72222222       0.00000000       0.00000000       2.50375533
2
Properties=species:S:1:pos:R:3:forces:R:3 energy=-22.965466653328146 pbc="F F F"
Gd       0.00000000       0.00000000       0.00000000       0.00000000       0.00000000      -2.22401571
Gd       0.00000000       0.00000000       2.78181818       0.00000000       0.00000000       2.22401571
2
Properties=species:S:1:pos:R:3:forces:R:3 energy=-23.089782472299667 pbc="F F F"
Gd       0.00000000       0.00000000       0.00000000       0.00000000       0.00000000      -1.95099914
Gd       0.00000000       0.00000000       2.84141414       0.00000000       0.00000000       1.95099914
2
Properties=species:S:1:pos:R:3:forces:R:3 energy=-23.19849147430897 pbc="F F F"
Gd       0.00000000       0.00000000       0.00000000       0.00000000       0.00000000      -1.70165515
Gd       0.00000000       0.00000000       2.90101010       0.00000000       0.00000000       1.70165515
2
Properties=species:S:1:pos:R:3:forces:R:3 energy=-23.293132959714516 pbc="F F F"
Gd       0.00000000       0.00000000       0.00000000       0.00000000       0.00000000      -1.47846627
Gd       0.00000000       0.00000000       2.96060606       0.00000000       0.00000000       1.47846627
2
Properties=species:S:1:pos:R:3:forces:R:3 energy=-23.375086024260913 pbc="F F F"
Gd       0.00000000       0.00000000       0.00000000       0.00000000       0.00000000      -1.27449834
Gd       0.00000000       0.00000000       3.02020202       0.00000000       0.00000000       1.27449834
2
Properties=species:S:1:pos:R:3:forces:R:3 energy=-23.445384419548613 pbc="F F F"
Gd       0.00000000       0.00000000       0.00000000       0.00000000       0.00000000      -1.08787215
Gd       0.00000000       0.00000000       3.07979798       0.00000000       0.00000000       1.08787215
2
Properties=species:S:1:pos:R:3:forces:R:3 energy=-23.50520482161266 pbc="F F F"
Gd       0.00000000       0.00000000       0.00000000       0.00000000       0.00000000      -0.92371476
Gd       0.00000000       0.00000000       3.13939394       0.00000000       0.00000000       0.92371476
2
Properties=species:S:1:pos:R:3:forces:R:3 energy=-23.55592199197756 pbc="F F F"
Gd       0.00000000       0.00000000       0.00000000       0.00000000       0.00000000      -0.78155619
Gd       0.00000000       0.00000000       3.19898990       0.00000000       0.00000000       0.78155619
2
Properties=species:S:1:pos:R:3:forces:R:3 energy=-23.59867423162249 pbc="F F F"
Gd       0.00000000       0.00000000       0.00000000       0.00000000       0.00000000      -0.65529776
Gd       0.00000000       0.00000000       3.25858586       0.00000000       0.00000000       0.65529776
2
Properties=species:S:1:pos:R:3:forces:R:3 energy=-23.634263970769222 pbc="F F F"
Gd       0.00000000       0.00000000       0.00000000       0.00000000       0.00000000      -0.54092467
Gd       0.00000000       0.00000000       3.31818182       0.00000000       0.00000000       0.54092467
2
Properties=species:S:1:pos:R:3:forces:R:3 energy=-23.663379192385925 pbc="F F F"
Gd       0.00000000       0.00000000       0.00000000       0.00000000       0.00000000      -0.43830812
Gd       0.00000000       0.00000000       3.37777778       0.00000000       0.00000000       0.43830812
2
Properties=species:S:1:pos:R:3:forces:R:3 energy=-23.686753326354427 pbc="F F F"
Gd       0.00000000       0.00000000       0.00000000       0.00000000       0.00000000      -0.34799439
Gd       0.00000000       0.00000000       3.43737374       0.00000000       0.00000000       0.34799439
2
Properties=species:S:1:pos:R:3:forces:R:3 energy=-23.705056898065568 pbc="F F F"
Gd       0.00000000       0.00000000       0.00000000       0.00000000       0.00000000      -0.26756370
Gd       0.00000000       0.00000000       3.49696970       0.00000000       0.00000000       0.26756370
2
Properties=species:S:1:pos:R:3:forces:R:3 energy=-23.718750706923927 pbc="F F F"
Gd       0.00000000       0.00000000       0.00000000       0.00000000       0.00000000      -0.19258358
Gd       0.00000000       0.00000000       3.55656566       0.00000000       0.00000000       0.19258358
2
Properties=species:S:1:pos:R:3:forces:R:3 energy=-23.72805878134222 pbc="F F F"
Gd       0.00000000       0.00000000       0.00000000       0.00000000       0.00000000      -0.12018070
Gd       0.00000000       0.00000000       3.61616162       0.00000000       0.00000000       0.12018070
2
Properties=species:S:1:pos:R:3:forces:R:3 energy=-23.733125129789595 pbc="F F F"
Gd       0.00000000       0.00000000       0.00000000       0.00000000       0.00000000      -0.05031310
Gd       0.00000000       0.00000000       3.67575758       0.00000000       0.00000000       0.05031310
2
Properties=species:S:1:pos:R:3:forces:R:3 energy=-23.73413777547357 pbc="F F F"
Gd       0.00000000       0.00000000       0.00000000       0.00000000       0.00000000       0.01552770
Gd       0.00000000       0.00000000       3.73535354       0.00000000       0.00000000      -0.01552770
2
Properties=species:S:1:pos:R:3:forces:R:3 energy=-23.731383879381067 pbc="F F F"
Gd       0.00000000       0.00000000       0.00000000       0.00000000       0.00000000       0.07582185
Gd       0.00000000       0.00000000       3.79494949       0.00000000       0.00000000      -0.07582185
2
Properties=species:S:1:pos:R:3:forces:R:3 energy=-23.725230654120782 pbc="F F F"
Gd       0.00000000       0.00000000       0.00000000       0.00000000       0.00000000       0.12960295
Gd       0.00000000       0.00000000       3.85454545       0.00000000       0.00000000      -0.12960295
2
Properties=species:S:1:pos:R:3:forces:R:3 energy=-23.716072319293204 pbc="F F F"
Gd       0.00000000       0.00000000       0.00000000       0.00000000       0.00000000       0.17643633
Gd       0.00000000       0.00000000       3.91414141       0.00000000       0.00000000      -0.17643633
2
Properties=species:S:1:pos:R:3:forces:R:3 energy=-23.70433740776727 pbc="F F F"
Gd       0.00000000       0.00000000       0.00000000       0.00000000       0.00000000       0.21627264
Gd       0.00000000       0.00000000       3.97373737       0.00000000       0.00000000      -0.21627264
2
Properties=species:S:1:pos:R:3:forces:R:3 energy=-23.690428078984567 pbc="F F F"
Gd       0.00000000       0.00000000       0.00000000       0.00000000       0.00000000       0.24940401
Gd       0.00000000       0.00000000       4.03333333       0.00000000       0.00000000      -0.24940401
2
Properties=species:S:1:pos:R:3:forces:R:3 energy=-23.674735219357277 pbc="F F F"
Gd       0.00000000       0.00000000       0.00000000       0.00000000       0.00000000       0.27637157
Gd       0.00000000       0.00000000       4.09292929       0.00000000       0.00000000      -0.27637157
2
Properties=species:S:1:pos:R:3:forces:R:3 energy=-23.65760044101535 pbc="F F F"
Gd       0.00000000       0.00000000       0.00000000       0.00000000       0.00000000       0.29778156
Gd       0.00000000       0.00000000       4.15252525       0.00000000       0.00000000      -0.29778156
2
Properties=species:S:1:pos:R:3:forces:R:3 energy=-23.639342860715086 pbc="F F F"
Gd       0.00000000       0.00000000       0.00000000       0.00000000       0.00000000       0.31407529
Gd       0.00000000       0.00000000       4.21212121       0.00000000       0.00000000      -0.31407529
2
Properties=species:S:1:pos:R:3:forces:R:3 energy=-23.6202609691739 pbc="F F F"
Gd       0.00000000       0.00000000       0.00000000       0.00000000       0.00000000       0.32543141
Gd       0.00000000       0.00000000       4.27171717       0.00000000       0.00000000      -0.32543141
2
Properties=species:S:1:pos:R:3:forces:R:3 energy=-23.60065185661212 pbc="F F F"
Gd       0.00000000       0.00000000       0.00000000       0.00000000       0.00000000       0.33187819
Gd       0.00000000       0.00000000       4.33131313       0.00000000       0.00000000      -0.33187819
2
Properties=species:S:1:pos:R:3:forces:R:3 energy=-23.580799743318618 pbc="F F F"
Gd       0.00000000       0.00000000       0.00000000       0.00000000       0.00000000       0.33350703
Gd       0.00000000       0.00000000       4.39090909       0.00000000       0.00000000      -0.33350703
2
Properties=species:S:1:pos:R:3:forces:R:3 energy=-23.560989438797176 pbc="F F F"
Gd       0.00000000       0.00000000       0.00000000       0.00000000       0.00000000       0.33066347
Gd       0.00000000       0.00000000       4.45050505       0.00000000       0.00000000      -0.33066347
2
Properties=species:S:1:pos:R:3:forces:R:3 energy=-23.541464373760935 pbc="F F F"
Gd       0.00000000       0.00000000       0.00000000       0.00000000       0.00000000       0.32398054
Gd       0.00000000       0.00000000       4.51010101       0.00000000       0.00000000      -0.32398054
2
Properties=species:S:1:pos:R:3:forces:R:3 energy=-23.522432328513926 pbc="F F F"
Gd       0.00000000       0.00000000       0.00000000       0.00000000       0.00000000       0.31431061
Gd       0.00000000       0.00000000       4.56969697       0.00000000       0.00000000      -0.31431061
2
Properties=species:S:1:pos:R:3:forces:R:3 energy=-23.50403883777618 pbc="F F F"
Gd       0.00000000       0.00000000       0.00000000       0.00000000       0.00000000       0.30259648
Gd       0.00000000       0.00000000       4.62929293       0.00000000       0.00000000      -0.30259648
2
Properties=species:S:1:pos:R:3:forces:R:3 energy=-23.486388089155295 pbc="F F F"
Gd       0.00000000       0.00000000       0.00000000       0.00000000       0.00000000       0.28975517
Gd       0.00000000       0.00000000       4.68888889       0.00000000       0.00000000      -0.28975517
2
Properties=species:S:1:pos:R:3:forces:R:3 energy=-23.46951056791177 pbc="F F F"
Gd       0.00000000       0.00000000       0.00000000       0.00000000       0.00000000       0.27660713
Gd       0.00000000       0.00000000       4.74848485       0.00000000       0.00000000      -0.27660713
2
Properties=species:S:1:pos:R:3:forces:R:3 energy=-23.453410607626306 pbc="F F F"
Gd       0.00000000       0.00000000       0.00000000       0.00000000       0.00000000       0.26383787
Gd       0.00000000       0.00000000       4.80808081       0.00000000       0.00000000      -0.26383787
2
Properties=species:S:1:pos:R:3:forces:R:3 energy=-23.438047418083784 pbc="F F F"
Gd       0.00000000       0.00000000       0.00000000       0.00000000       0.00000000       0.25197390
Gd       0.00000000       0.00000000       4.86767677       0.00000000       0.00000000      -0.25197390
2
Properties=species:S:1:pos:R:3:forces:R:3 energy=-23.423350211013773 pbc="F F F"
Gd       0.00000000       0.00000000       0.00000000       0.00000000       0.00000000       0.24132857
Gd       0.00000000       0.00000000       4.92727273       0.00000000       0.00000000      -0.24132857
2
Properties=species:S:1:pos:R:3:forces:R:3 energy=-23.40925628370678 pbc="F F F"
Gd       0.00000000       0.00000000       0.00000000       0.00000000       0.00000000       0.23195514
Gd       0.00000000       0.00000000       4.98686869       0.00000000       0.00000000      -0.23195514
2
Properties=species:S:1:pos:R:3:forces:R:3 energy=-23.395688111823702 pbc="F F F"
Gd       0.00000000       0.00000000       0.00000000       0.00000000       0.00000000       0.22360069
Gd       0.00000000       0.00000000       5.04646465       0.00000000       0.00000000      -0.22360069
2
Properties=species:S:1:pos:R:3:forces:R:3 energy=-23.382595108325127 pbc="F F F"
Gd       0.00000000       0.00000000       0.00000000       0.00000000       0.00000000       0.21570764
Gd       0.00000000       0.00000000       5.10606061       0.00000000       0.00000000      -0.21570764
2
Properties=species:S:1:pos:R:3:forces:R:3 energy=-23.369980377037365 pbc="F F F"
Gd       0.00000000       0.00000000       0.00000000       0.00000000       0.00000000       0.20747650
Gd       0.00000000       0.00000000       5.16565657       0.00000000       0.00000000      -0.20747650
2
Properties=species:S:1:pos:R:3:forces:R:3 energy=-23.35788907215566 pbc="F F F"
Gd       0.00000000       0.00000000       0.00000000       0.00000000       0.00000000       0.19802499
Gd       0.00000000       0.00000000       5.22525253       0.00000000       0.00000000      -0.19802499
2
Properties=species:S:1:pos:R:3:forces:R:3 energy=-23.346417839952707 pbc="F F F"
Gd       0.00000000       0.00000000       0.00000000       0.00000000       0.00000000       0.18655740
Gd       0.00000000       0.00000000       5.28484848       0.00000000       0.00000000      -0.18655740
2
Properties=species:S:1:pos:R:3:forces:R:3 energy=-23.335705225014667 pbc="F F F"
Gd       0.00000000       0.00000000       0.00000000       0.00000000       0.00000000       0.17255628
Gd       0.00000000       0.00000000       5.34444444       0.00000000       0.00000000      -0.17255628
2
Properties=species:S:1:pos:R:3:forces:R:3 energy=-23.325904840647446 pbc="F F F"
Gd       0.00000000       0.00000000       0.00000000       0.00000000       0.00000000       0.15593009
Gd       0.00000000       0.00000000       5.40404040       0.00000000       0.00000000      -0.15593009
2
Properties=species:S:1:pos:R:3:forces:R:3 energy=-23.31716049731672 pbc="F F F"
Gd       0.00000000       0.00000000       0.00000000       0.00000000       0.00000000       0.13707408
Gd       0.00000000       0.00000000       5.46363636       0.00000000       0.00000000      -0.13707408
2
Properties=species:S:1:pos:R:3:forces:R:3 energy=-23.30959466352148 pbc="F F F"
Gd       0.00000000       0.00000000       0.00000000       0.00000000       0.00000000       0.11684728
Gd       0.00000000       0.00000000       5.52323232       0.00000000       0.00000000      -0.11684728
2
Properties=species:S:1:pos:R:3:forces:R:3 energy=-23.30324168958495 pbc="F F F"
Gd       0.00000000       0.00000000       0.00000000       0.00000000       0.00000000       0.09642349
Gd       0.00000000       0.00000000       5.58282828       0.00000000       0.00000000      -0.09642349
2
Properties=species:S:1:pos:R:3:forces:R:3 energy=-23.298076272164266 pbc="F F F"
Gd       0.00000000       0.00000000       0.00000000       0.00000000       0.00000000       0.07714801
Gd       0.00000000       0.00000000       5.64242424       0.00000000       0.00000000      -0.07714801
2
Properties=species:S:1:pos:R:3:forces:R:3 energy=-23.293996341965737 pbc="F F F"
Gd       0.00000000       0.00000000       0.00000000       0.00000000       0.00000000       0.06027230
Gd       0.00000000       0.00000000       5.70202020       0.00000000       0.00000000      -0.06027230
2
Properties=species:S:1:pos:R:3:forces:R:3 energy=-23.29082301622754 pbc="F F F"
Gd       0.00000000       0.00000000       0.00000000       0.00000000       0.00000000       0.04677635
Gd       0.00000000       0.00000000       5.76161616       0.00000000       0.00000000      -0.04677635
2
Properties=species:S:1:pos:R:3:forces:R:3 energy=-23.288346292723517 pbc="F F F"
Gd       0.00000000       0.00000000       0.00000000       0.00000000       0.00000000       0.03713109
Gd       0.00000000       0.00000000       5.82121212       0.00000000       0.00000000      -0.03713109
2
Properties=species:S:1:pos:R:3:forces:R:3 energy=-23.28632704581083 pbc="F F F"
Gd       0.00000000       0.00000000       0.00000000       0.00000000       0.00000000       0.03123465
Gd       0.00000000       0.00000000       5.88080808       0.00000000       0.00000000      -0.03123465
2
Properties=species:S:1:pos:R:3:forces:R:3 energy=-23.284561812927024 pbc="F F F"
Gd       0.00000000       0.00000000       0.00000000       0.00000000       0.00000000       0.02832311
Gd       0.00000000       0.00000000       5.94040404       0.00000000       0.00000000      -0.02832311
2
Properties=species:S:1:pos:R:3:forces:R:3 energy=-23.282915289208894 pbc="F F F"
Gd       0.00000000       0.00000000       0.00000000       0.00000000       0.00000000       0.02710294
Gd       0.00000000       0.00000000       6.00000000       0.00000000       0.00000000      -0.02710294
