2
Properties=species:S:1:pos:R:3:forces:R:3 energy=-2107473.293714938 pbc="F F F"
Ge       0.00000000       0.00000000       0.00000000       0.00000000       0.00000000 18584046.00000000
Ge       0.00000000       0.00000000       0.18000000       0.00000000       0.00000000 -18584046.00000000
2
Properties=species:S:1:pos:R:3:forces:R:3 energy=-1146619.0437149382 pbc="F F F"
Ge       0.00000000       0.00000000       0.00000000       0.00000000       0.00000000 13649801.00000000
Ge       0.00000000       0.00000000       0.23878788       0.00000000       0.00000000 -13649801.00000000
2
Properties=species:S:1:pos:R:3:forces:R:3 energy=-511612.7312149383 pbc="F F F"
Ge       0.00000000       0.00000000       0.00000000       0.00000000       0.00000000 7956158.50000000
Ge       0.00000000       0.00000000       0.29757576       0.00000000       0.00000000 -7956158.50000000
2
Properties=species:S:1:pos:R:3:forces:R:3 energy=-179600.5437149351 pbc="F F F"
Ge       0.00000000       0.00000000       0.00000000       0.00000000       0.00000000 3488177.75000000
Ge       0.00000000       0.00000000       0.35636364       0.00000000       0.00000000 -3488177.75000000
2
Properties=species:S:1:pos:R:3:forces:R:3 energy=-55049.0476211756 pbc="F F F"
Ge       0.00000000       0.00000000       0.00000000       0.00000000       0.00000000 1150924.62500000
Ge       0.00000000       0.00000000       0.41515152       0.00000000       0.00000000 -1150924.62500000
2
Properties=species:S:1:pos:R:3:forces:R:3 energy=-5528.958753972264 pbc="F F F"
Ge       0.00000000       0.00000000       0.00000000       0.00000000       0.00000000  271683.71875000
Ge       0.00000000       0.00000000       0.47393939       0.00000000       0.00000000 -271683.71875000
2
Properties=species:S:1:pos:R:3:forces:R:3 energy=338.624131798434 pbc="F F F"
Ge       0.00000000       0.00000000       0.00000000       0.00000000       0.00000000   11423.74707031
Ge       0.00000000       0.00000000       0.53272727       0.00000000       0.00000000  -11423.74707031
2
Properties=species:S:1:pos:R:3:forces:R:3 energy=399.08879249365043 pbc="F F F"
Ge       0.00000000       0.00000000       0.00000000       0.00000000       0.00000000   -2508.11914062
Ge       0.00000000       0.00000000       0.59151515       0.00000000       0.00000000    2508.11914062
2
Properties=species:S:1:pos:R:3:forces:R:3 energy=257.7804124553963 pbc="F F F"
Ge       0.00000000       0.00000000       0.00000000       0.00000000       0.00000000   -2159.91333008
Ge       0.00000000       0.00000000       0.65030303       0.00000000       0.00000000    2159.91333008
2
Properties=species:S:1:pos:R:3:forces:R:3 energy=158.60913268121826 pbc="F F F"
Ge       0.00000000       0.00000000       0.00000000       0.00000000       0.00000000   -1255.68151855
Ge       0.00000000       0.00000000       0.70909091       0.00000000       0.00000000    1255.68151855
2
Properties=species:S:1:pos:R:3:forces:R:3 energy=101.8836690199392 pbc="F F F"
Ge       0.00000000       0.00000000       0.00000000       0.00000000       0.00000000    -701.44183350
Ge       0.00000000       0.00000000       0.76787879       0.00000000       0.00000000     701.44183350
2
Properties=species:S:1:pos:R:3:forces:R:3 energy=72.10370106233138 pbc="F F F"
Ge       0.00000000       0.00000000       0.00000000       0.00000000       0.00000000    -320.80099487
Ge       0.00000000       0.00000000       0.82666667       0.00000000       0.00000000     320.80099487
2
Properties=species:S:1:pos:R:3:forces:R:3 energy=57.91599931736794 pbc="F F F"
Ge       0.00000000       0.00000000       0.00000000       0.00000000       0.00000000    -167.53495789
Ge       0.00000000       0.00000000       0.88545455       0.00000000       0.00000000     167.53495789
2
Properties=species:S:1:pos:R:3:forces:R:3 energy=49.08790162847065 pbc="F F F"
Ge       0.00000000       0.00000000       0.00000000       0.00000000       0.00000000    -155.40090942
Ge       0.00000000       0.00000000       0.94424242       0.00000000       0.00000000     155.40090942
2
Properties=species:S:1:pos:R:3:forces:R:3 energy=39.847004332451476 pbc="F F F"
Ge       0.00000000       0.00000000       0.00000000       0.00000000       0.00000000    -158.16453552
Ge       0.00000000       0.00000000       1.00303030       0.00000000       0.00000000     158.16453552
2
Properties=species:S:1:pos:R:3:forces:R:3 energy=31.685811615707735 pbc="F F F"
Ge       0.00000000       0.00000000       0.00000000       0.00000000       0.00000000    -120.95094299
Ge       0.00000000       0.00000000       1.06181818       0.00000000       0.00000000     120.95094299
2
Properties=species:S:1:pos:R:3:forces:R:3 energy=26.544959232251674 pbc="F F F"
Ge       0.00000000       0.00000000       0.00000000       0.00000000       0.00000000     -36.39373779
Ge       0.00000000       0.00000000       1.12060606       0.00000000       0.00000000      36.39373779
2
Properties=species:S:1:pos:R:3:forces:R:3 energy=25.97503016919579 pbc="F F F"
Ge       0.00000000       0.00000000       0.00000000       0.00000000       0.00000000     -10.39671612
Ge       0.00000000       0.00000000       1.17939394       0.00000000       0.00000000      10.39671612
2
Properties=species:S:1:pos:R:3:forces:R:3 energy=24.57884587800805 pbc="F F F"
Ge       0.00000000       0.00000000       0.00000000       0.00000000       0.00000000     -35.50831985
Ge       0.00000000       0.00000000       1.23818182       0.00000000       0.00000000      35.50831985
2
Properties=species:S:1:pos:R:3:forces:R:3 energy=21.934226325459196 pbc="F F F"
Ge       0.00000000       0.00000000       0.00000000       0.00000000       0.00000000     -49.18702316
Ge       0.00000000       0.00000000       1.29696970       0.00000000       0.00000000      49.18702316
2
Properties=species:S:1:pos:R:3:forces:R:3 energy=18.77633630277086 pbc="F F F"
Ge       0.00000000       0.00000000       0.00000000       0.00000000       0.00000000     -58.33292007
Ge       0.00000000       0.00000000       1.35575758       0.00000000       0.00000000      58.33292007
2
Properties=species:S:1:pos:R:3:forces:R:3 energy=15.20071412351652 pbc="F F F"
Ge       0.00000000       0.00000000       0.00000000       0.00000000       0.00000000     -61.25867844
Ge       0.00000000       0.00000000       1.41454545       0.00000000       0.00000000      61.25867844
2
Properties=species:S:1:pos:R:3:forces:R:3 energy=11.620579451844554 pbc="F F F"
Ge       0.00000000       0.00000000       0.00000000       0.00000000       0.00000000     -60.41292572
Ge       0.00000000       0.00000000       1.47333333       0.00000000       0.00000000      60.41292572
2
Properties=species:S:1:pos:R:3:forces:R:3 energy=8.148659690563791 pbc="F F F"
Ge       0.00000000       0.00000000       0.00000000       0.00000000       0.00000000     -56.51401901
Ge       0.00000000       0.00000000       1.53212121       0.00000000       0.00000000      56.51401901
2
Properties=species:S:1:pos:R:3:forces:R:3 energy=5.136335457144684 pbc="F F F"
Ge       0.00000000       0.00000000       0.00000000       0.00000000       0.00000000     -45.62959671
Ge       0.00000000       0.00000000       1.59090909       0.00000000       0.00000000      45.62959671
2
Properties=species:S:1:pos:R:3:forces:R:3 energy=2.7419990145484485 pbc="F F F"
Ge       0.00000000       0.00000000       0.00000000       0.00000000       0.00000000     -35.97260666
Ge       0.00000000       0.00000000       1.64969697       0.00000000       0.00000000      35.97260666
2
Properties=species:S:1:pos:R:3:forces:R:3 energy=0.8704902079146243 pbc="F F F"
Ge       0.00000000       0.00000000       0.00000000       0.00000000       0.00000000     -27.93941879
Ge       0.00000000       0.00000000       1.70848485       0.00000000       0.00000000      27.93941879
2
Properties=species:S:1:pos:R:3:forces:R:3 energy=-0.5872975494500668 pbc="F F F"
Ge       0.00000000       0.00000000       0.00000000       0.00000000       0.00000000     -22.28481483
Ge       0.00000000       0.00000000       1.76727273       0.00000000       0.00000000      22.28481483
2
Properties=species:S:1:pos:R:3:forces:R:3 energy=-1.7880034533652187 pbc="F F F"
Ge       0.00000000       0.00000000       0.00000000       0.00000000       0.00000000     -18.38184929
Ge       0.00000000       0.00000000       1.82606061       0.00000000       0.00000000      18.38184929
2
Properties=species:S:1:pos:R:3:forces:R:3 energy=-2.7224035706742087 pbc="F F F"
Ge       0.00000000       0.00000000       0.00000000       0.00000000       0.00000000     -13.62951088
Ge       0.00000000       0.00000000       1.88484848       0.00000000       0.00000000      13.62951088
2
Properties=species:S:1:pos:R:3:forces:R:3 energy=-3.4167806776925818 pbc="F F F"
Ge       0.00000000       0.00000000       0.00000000       0.00000000       0.00000000     -10.08022976
Ge       0.00000000       0.00000000       1.94363636       0.00000000       0.00000000      10.08022976
2
Properties=species:S:1:pos:R:3:forces:R:3 energy=-3.9265079615820255 pbc="F F F"
Ge       0.00000000       0.00000000       0.00000000       0.00000000       0.00000000      -7.44156313
Ge       0.00000000       0.00000000       2.00242424       0.00000000       0.00000000       7.44156313
2
Properties=species:S:1:pos:R:3:forces:R:3 energy=-4.300097450319998 pbc="F F F"
Ge       0.00000000       0.00000000       0.00000000       0.00000000       0.00000000      -5.31504297
Ge       0.00000000       0.00000000       2.06121212       0.00000000       0.00000000       5.31504297
2
Properties=species:S:1:pos:R:3:forces:R:3 energy=-4.56316110854294 pbc="F F F"
Ge       0.00000000       0.00000000       0.00000000       0.00000000       0.00000000      -3.70756269
Ge       0.00000000       0.00000000       2.12000000       0.00000000       0.00000000       3.70756269
2
Properties=species:S:1:pos:R:3:forces:R:3 energy=-4.741767398774442 pbc="F F F"
Ge       0.00000000       0.00000000       0.00000000       0.00000000       0.00000000      -2.43773818
Ge       0.00000000       0.00000000       2.17878788       0.00000000       0.00000000       2.43773818
2
Properties=species:S:1:pos:R:3:forces:R:3 energy=-4.855683614911283 pbc="F F F"
Ge       0.00000000       0.00000000       0.00000000       0.00000000       0.00000000      -1.45605648
Ge       0.00000000       0.00000000       2.23757576       0.00000000       0.00000000       1.45605648
2
Properties=species:S:1:pos:R:3:forces:R:3 energy=-4.915828681480744 pbc="F F F"
Ge       0.00000000       0.00000000       0.00000000       0.00000000       0.00000000      -0.62121689
Ge       0.00000000       0.00000000       2.29636364       0.00000000       0.00000000       0.62121689
2
Properties=species:S:1:pos:R:3:forces:R:3 energy=-4.932553633633432 pbc="F F F"
Ge       0.00000000       0.00000000       0.00000000       0.00000000       0.00000000       0.01712278
Ge       0.00000000       0.00000000       2.35515152       0.00000000       0.00000000      -0.01712278
2
Properties=species:S:1:pos:R:3:forces:R:3 energy=-4.916603031727986 pbc="F F F"
Ge       0.00000000       0.00000000       0.00000000       0.00000000       0.00000000       0.51929307
Ge       0.00000000       0.00000000       2.41393939       0.00000000       0.00000000      -0.51929307
2
Properties=species:S:1:pos:R:3:forces:R:3 energy=-4.872070119974616 pbc="F F F"
Ge       0.00000000       0.00000000       0.00000000       0.00000000       0.00000000       0.98168504
Ge       0.00000000       0.00000000       2.47272727       0.00000000       0.00000000      -0.98168504
2
Properties=species:S:1:pos:R:3:forces:R:3 energy=-4.803268580415098 pbc="F F F"
Ge       0.00000000       0.00000000       0.00000000       0.00000000       0.00000000       1.34386754
Ge       0.00000000       0.00000000       2.53151515       0.00000000       0.00000000      -1.34386754
2
Properties=species:S:1:pos:R:3:forces:R:3 energy=-4.715669693353147 pbc="F F F"
Ge       0.00000000       0.00000000       0.00000000       0.00000000       0.00000000       1.62246406
Ge       0.00000000       0.00000000       2.59030303       0.00000000       0.00000000      -1.62246406
2
Properties=species:S:1:pos:R:3:forces:R:3 energy=-4.613959239310763 pbc="F F F"
Ge       0.00000000       0.00000000       0.00000000       0.00000000       0.00000000       1.82784474
Ge       0.00000000       0.00000000       2.64909091       0.00000000       0.00000000      -1.82784474
2
Properties=species:S:1:pos:R:3:forces:R:3 energy=-4.501740426536037 pbc="F F F"
Ge       0.00000000       0.00000000       0.00000000       0.00000000       0.00000000       1.98201919
Ge       0.00000000       0.00000000       2.70787879       0.00000000       0.00000000      -1.98201919
2
Properties=species:S:1:pos:R:3:forces:R:3 energy=-4.3819058943833715 pbc="F F F"
Ge       0.00000000       0.00000000       0.00000000       0.00000000       0.00000000       2.08620429
Ge       0.00000000       0.00000000       2.76666667       0.00000000       0.00000000      -2.08620429
2
Properties=species:S:1:pos:R:3:forces:R:3 energy=-4.257445259916898 pbc="F F F"
Ge       0.00000000       0.00000000       0.00000000       0.00000000       0.00000000       2.13985920
Ge       0.00000000       0.00000000       2.82545455       0.00000000       0.00000000      -2.13985920
2
Properties=species:S:1:pos:R:3:forces:R:3 energy=-4.131220274365232 pbc="F F F"
Ge       0.00000000       0.00000000       0.00000000       0.00000000       0.00000000       2.14719081
Ge       0.00000000       0.00000000       2.88424242       0.00000000       0.00000000      -2.14719081
2
Properties=species:S:1:pos:R:3:forces:R:3 energy=-4.005720046106101 pbc="F F F"
Ge       0.00000000       0.00000000       0.00000000       0.00000000       0.00000000       2.11742735
Ge       0.00000000       0.00000000       2.94303030       0.00000000       0.00000000      -2.11742735
2
Properties=species:S:1:pos:R:3:forces:R:3 energy=-3.8826711325441403 pbc="F F F"
Ge       0.00000000       0.00000000       0.00000000       0.00000000       0.00000000       2.06668472
Ge       0.00000000       0.00000000       3.00181818       0.00000000       0.00000000      -2.06668472
2
Properties=species:S:1:pos:R:3:forces:R:3 energy=-3.762887585406159 pbc="F F F"
Ge       0.00000000       0.00000000       0.00000000       0.00000000       0.00000000       2.00722289
Ge       0.00000000       0.00000000       3.06060606       0.00000000       0.00000000      -2.00722289
2
Properties=species:S:1:pos:R:3:forces:R:3 energy=-3.646866775702699 pbc="F F F"
Ge       0.00000000       0.00000000       0.00000000       0.00000000       0.00000000       1.93769360
Ge       0.00000000       0.00000000       3.11939394       0.00000000       0.00000000      -1.93769360
2
Properties=species:S:1:pos:R:3:forces:R:3 energy=-3.5353453968841384 pbc="F F F"
Ge       0.00000000       0.00000000       0.00000000       0.00000000       0.00000000       1.85399711
Ge       0.00000000       0.00000000       3.17818182       0.00000000       0.00000000      -1.85399711
2
Properties=species:S:1:pos:R:3:forces:R:3 energy=-3.4291081098765335 pbc="F F F"
Ge       0.00000000       0.00000000       0.00000000       0.00000000       0.00000000       1.75870311
Ge       0.00000000       0.00000000       3.23696970       0.00000000       0.00000000      -1.75870311
2
Properties=species:S:1:pos:R:3:forces:R:3 energy=-3.3287061086817302 pbc="F F F"
Ge       0.00000000       0.00000000       0.00000000       0.00000000       0.00000000       1.65615904
Ge       0.00000000       0.00000000       3.29575758       0.00000000       0.00000000      -1.65615904
2
Properties=species:S:1:pos:R:3:forces:R:3 energy=-3.2344729507185512 pbc="F F F"
Ge       0.00000000       0.00000000       0.00000000       0.00000000       0.00000000       1.54910159
Ge       0.00000000       0.00000000       3.35454545       0.00000000       0.00000000      -1.54910159
2
Properties=species:S:1:pos:R:3:forces:R:3 energy=-3.146622942869243 pbc="F F F"
Ge       0.00000000       0.00000000       0.00000000       0.00000000       0.00000000       1.43927348
Ge       0.00000000       0.00000000       3.41333333       0.00000000       0.00000000      -1.43927348
2
Properties=species:S:1:pos:R:3:forces:R:3 energy=-3.0652592724143437 pbc="F F F"
Ge       0.00000000       0.00000000       0.00000000       0.00000000       0.00000000       1.32891297
Ge       0.00000000       0.00000000       3.47212121       0.00000000       0.00000000      -1.32891297
2
Properties=species:S:1:pos:R:3:forces:R:3 energy=-2.990327195812089 pbc="F F F"
Ge       0.00000000       0.00000000       0.00000000       0.00000000       0.00000000       1.22103131
Ge       0.00000000       0.00000000       3.53090909       0.00000000       0.00000000      -1.22103131
2
Properties=species:S:1:pos:R:3:forces:R:3 energy=-2.921601702465056 pbc="F F F"
Ge       0.00000000       0.00000000       0.00000000       0.00000000       0.00000000       1.11793613
Ge       0.00000000       0.00000000       3.58969697       0.00000000       0.00000000      -1.11793613
2
Properties=species:S:1:pos:R:3:forces:R:3 energy=-2.8587740835112 pbc="F F F"
Ge       0.00000000       0.00000000       0.00000000       0.00000000       0.00000000       1.02043724
Ge       0.00000000       0.00000000       3.64848485       0.00000000       0.00000000      -1.02043724
2
Properties=species:S:1:pos:R:3:forces:R:3 energy=-2.801509722490827 pbc="F F F"
Ge       0.00000000       0.00000000       0.00000000       0.00000000       0.00000000       0.92868328
Ge       0.00000000       0.00000000       3.70727273       0.00000000       0.00000000      -0.92868328
2
Properties=species:S:1:pos:R:3:forces:R:3 energy=-2.749463588554493 pbc="F F F"
Ge       0.00000000       0.00000000       0.00000000       0.00000000       0.00000000       0.84310722
Ge       0.00000000       0.00000000       3.76606061       0.00000000       0.00000000      -0.84310722
2
Properties=species:S:1:pos:R:3:forces:R:3 energy=-2.7022466091079687 pbc="F F F"
Ge       0.00000000       0.00000000       0.00000000       0.00000000       0.00000000       0.76445627
Ge       0.00000000       0.00000000       3.82484848       0.00000000       0.00000000      -0.76445627
2
Properties=species:S:1:pos:R:3:forces:R:3 energy=-2.6594357499168235 pbc="F F F"
Ge       0.00000000       0.00000000       0.00000000       0.00000000       0.00000000       0.69322282
Ge       0.00000000       0.00000000       3.88363636       0.00000000       0.00000000      -0.69322282
2
Properties=species:S:1:pos:R:3:forces:R:3 energy=-2.6205960604894822 pbc="F F F"
Ge       0.00000000       0.00000000       0.00000000       0.00000000       0.00000000       0.62925416
Ge       0.00000000       0.00000000       3.94242424       0.00000000       0.00000000      -0.62925416
2
Properties=species:S:1:pos:R:3:forces:R:3 energy=-2.5853240092378185 pbc="F F F"
Ge       0.00000000       0.00000000       0.00000000       0.00000000       0.00000000       0.57178390
Ge       0.00000000       0.00000000       4.00121212       0.00000000       0.00000000      -0.57178390
2
Properties=species:S:1:pos:R:3:forces:R:3 energy=-2.553262309778573 pbc="F F F"
Ge       0.00000000       0.00000000       0.00000000       0.00000000       0.00000000       0.51978725
Ge       0.00000000       0.00000000       4.06000000       0.00000000       0.00000000      -0.51978725
2
Properties=species:S:1:pos:R:3:forces:R:3 energy=-2.5241189500701697 pbc="F F F"
Ge       0.00000000       0.00000000       0.00000000       0.00000000       0.00000000       0.47236517
Ge       0.00000000       0.00000000       4.11878788       0.00000000       0.00000000      -0.47236517
2
Properties=species:S:1:pos:R:3:forces:R:3 energy=-2.497644202858813 pbc="F F F"
Ge       0.00000000       0.00000000       0.00000000       0.00000000       0.00000000       0.42894888
Ge       0.00000000       0.00000000       4.17757576       0.00000000       0.00000000      -0.42894888
2
Properties=species:S:1:pos:R:3:forces:R:3 energy=-2.4736115141782937 pbc="F F F"
Ge       0.00000000       0.00000000       0.00000000       0.00000000       0.00000000       0.38930029
Ge       0.00000000       0.00000000       4.23636364       0.00000000       0.00000000      -0.38930029
2
Properties=species:S:1:pos:R:3:forces:R:3 energy=-2.4518002041637663 pbc="F F F"
Ge       0.00000000       0.00000000       0.00000000       0.00000000       0.00000000       0.35337329
Ge       0.00000000       0.00000000       4.29515152       0.00000000       0.00000000      -0.35337329
2
Properties=species:S:1:pos:R:3:forces:R:3 energy=-2.431990676505407 pbc="F F F"
Ge       0.00000000       0.00000000       0.00000000       0.00000000       0.00000000       0.32114792
Ge       0.00000000       0.00000000       4.35393939       0.00000000       0.00000000      -0.32114792
2
Properties=species:S:1:pos:R:3:forces:R:3 energy=-2.4139699409215223 pbc="F F F"
Ge       0.00000000       0.00000000       0.00000000       0.00000000       0.00000000       0.29249653
Ge       0.00000000       0.00000000       4.41272727       0.00000000       0.00000000      -0.29249653
2
Properties=species:S:1:pos:R:3:forces:R:3 energy=-2.397534876574831 pbc="F F F"
Ge       0.00000000       0.00000000       0.00000000       0.00000000       0.00000000       0.26714027
Ge       0.00000000       0.00000000       4.47151515       0.00000000       0.00000000      -0.26714027
2
Properties=species:S:1:pos:R:3:forces:R:3 energy=-2.382506044510946 pbc="F F F"
Ge       0.00000000       0.00000000       0.00000000       0.00000000       0.00000000       0.24466574
Ge       0.00000000       0.00000000       4.53030303       0.00000000       0.00000000      -0.24466574
2
Properties=species:S:1:pos:R:3:forces:R:3 energy=-2.3687208171170915 pbc="F F F"
Ge       0.00000000       0.00000000       0.00000000       0.00000000       0.00000000       0.22459091
Ge       0.00000000       0.00000000       4.58909091       0.00000000       0.00000000      -0.22459091
2
Properties=species:S:1:pos:R:3:forces:R:3 energy=-2.356060084170791 pbc="F F F"
Ge       0.00000000       0.00000000       0.00000000       0.00000000       0.00000000       0.20647068
Ge       0.00000000       0.00000000       4.64787879       0.00000000       0.00000000      -0.20647068
2
Properties=species:S:1:pos:R:3:forces:R:3 energy=-2.3444138176102527 pbc="F F F"
Ge       0.00000000       0.00000000       0.00000000       0.00000000       0.00000000       0.18997249
Ge       0.00000000       0.00000000       4.70666667       0.00000000       0.00000000      -0.18997249
2
Properties=species:S:1:pos:R:3:forces:R:3 energy=-2.333696344578633 pbc="F F F"
Ge       0.00000000       0.00000000       0.00000000       0.00000000       0.00000000       0.17494079
Ge       0.00000000       0.00000000       4.76545455       0.00000000       0.00000000      -0.17494079
2
Properties=species:S:1:pos:R:3:forces:R:3 energy=-2.3238143248906162 pbc="F F F"
Ge       0.00000000       0.00000000       0.00000000       0.00000000       0.00000000       0.16139501
Ge       0.00000000       0.00000000       4.82424242       0.00000000       0.00000000      -0.16139501
2
Properties=species:S:1:pos:R:3:forces:R:3 energy=-2.3146873009636377 pbc="F F F"
Ge       0.00000000       0.00000000       0.00000000       0.00000000       0.00000000       0.14947954
Ge       0.00000000       0.00000000       4.88303030       0.00000000       0.00000000      -0.14947954
2
Properties=species:S:1:pos:R:3:forces:R:3 energy=-2.306204248615691 pbc="F F F"
Ge       0.00000000       0.00000000       0.00000000       0.00000000       0.00000000       0.13936023
Ge       0.00000000       0.00000000       4.94181818       0.00000000       0.00000000      -0.13936023
2
Properties=species:S:1:pos:R:3:forces:R:3 energy=-2.2982651109993313 pbc="F F F"
Ge       0.00000000       0.00000000       0.00000000       0.00000000       0.00000000       0.13109979
Ge       0.00000000       0.00000000       5.00060606       0.00000000       0.00000000      -0.13109979
2
Properties=species:S:1:pos:R:3:forces:R:3 energy=-2.2907579753584395 pbc="F F F"
Ge       0.00000000       0.00000000       0.00000000       0.00000000       0.00000000       0.12454990
Ge       0.00000000       0.00000000       5.05939394       0.00000000       0.00000000      -0.12454990
2
Properties=species:S:1:pos:R:3:forces:R:3 energy=-2.2835943241318826 pbc="F F F"
Ge       0.00000000       0.00000000       0.00000000       0.00000000       0.00000000       0.11929716
Ge       0.00000000       0.00000000       5.11818182       0.00000000       0.00000000      -0.11929716
2
Properties=species:S:1:pos:R:3:forces:R:3 energy=-2.2767186556439665 pbc="F F F"
Ge       0.00000000       0.00000000       0.00000000       0.00000000       0.00000000       0.11467766
Ge       0.00000000       0.00000000       5.17696970       0.00000000       0.00000000      -0.11467766
2
Properties=species:S:1:pos:R:3:forces:R:3 energy=-2.270116130921988 pbc="F F F"
Ge       0.00000000       0.00000000       0.00000000       0.00000000       0.00000000       0.10988130
Ge       0.00000000       0.00000000       5.23575758       0.00000000       0.00000000      -0.10988130
2
Properties=species:S:1:pos:R:3:forces:R:3 energy=-2.263818847023113 pbc="F F F"
Ge       0.00000000       0.00000000       0.00000000       0.00000000       0.00000000       0.10410394
Ge       0.00000000       0.00000000       5.29454545       0.00000000       0.00000000      -0.10410394
2
Properties=species:S:1:pos:R:3:forces:R:3 energy=-2.2579058544573973 pbc="F F F"
Ge       0.00000000       0.00000000       0.00000000       0.00000000       0.00000000       0.09672000
Ge       0.00000000       0.00000000       5.35333333       0.00000000       0.00000000      -0.09672000
2
Properties=species:S:1:pos:R:3:forces:R:3 energy=-2.2524831648731856 pbc="F F F"
Ge       0.00000000       0.00000000       0.00000000       0.00000000       0.00000000       0.08743276
Ge       0.00000000       0.00000000       5.41212121       0.00000000       0.00000000      -0.08743276
2
Properties=species:S:1:pos:R:3:forces:R:3 energy=-2.2476647409272275 pbc="F F F"
Ge       0.00000000       0.00000000       0.00000000       0.00000000       0.00000000       0.07633872
Ge       0.00000000       0.00000000       5.47090909       0.00000000       0.00000000      -0.07633872
2
Properties=species:S:1:pos:R:3:forces:R:3 energy=-2.2435338898978836 pbc="F F F"
Ge       0.00000000       0.00000000       0.00000000       0.00000000       0.00000000       0.06393578
Ge       0.00000000       0.00000000       5.52969697       0.00000000       0.00000000      -0.06393578
2
Properties=species:S:1:pos:R:3:forces:R:3 energy=-2.2401552099566593 pbc="F F F"
Ge       0.00000000       0.00000000       0.00000000       0.00000000       0.00000000       0.05103032
Ge       0.00000000       0.00000000       5.58848485       0.00000000       0.00000000      -0.05103032
2
Properties=species:S:1:pos:R:3:forces:R:3 energy=-2.23752601059082 pbc="F F F"
Ge       0.00000000       0.00000000       0.00000000       0.00000000       0.00000000       0.03858755
Ge       0.00000000       0.00000000       5.64727273       0.00000000       0.00000000      -0.03858755
2
Properties=species:S:1:pos:R:3:forces:R:3 energy=-2.2355906090066284 pbc="F F F"
Ge       0.00000000       0.00000000       0.00000000       0.00000000       0.00000000       0.02754987
Ge       0.00000000       0.00000000       5.70606061       0.00000000       0.00000000      -0.02754987
2
Properties=species:S:1:pos:R:3:forces:R:3 energy=-2.234243699667673 pbc="F F F"
Ge       0.00000000       0.00000000       0.00000000       0.00000000       0.00000000       0.01865524
Ge       0.00000000       0.00000000       5.76484848       0.00000000       0.00000000      -0.01865524
2
Properties=species:S:1:pos:R:3:forces:R:3 energy=-2.2333461326866857 pbc="F F F"
Ge       0.00000000       0.00000000       0.00000000       0.00000000       0.00000000       0.01232192
Ge       0.00000000       0.00000000       5.82363636       0.00000000       0.00000000      -0.01232192
2
Properties=species:S:1:pos:R:3:forces:R:3 energy=-2.2327468237842014 pbc="F F F"
Ge       0.00000000       0.00000000       0.00000000       0.00000000       0.00000000       0.00851415
Ge       0.00000000       0.00000000       5.88242424       0.00000000       0.00000000      -0.00851415
2
Properties=species:S:1:pos:R:3:forces:R:3 energy=-2.232305674942325 pbc="F F F"
Ge       0.00000000       0.00000000       0.00000000       0.00000000       0.00000000       0.00675067
Ge       0.00000000       0.00000000       5.94121212       0.00000000       0.00000000      -0.00675067
2
Properties=species:S:1:pos:R:3:forces:R:3 energy=-2.231927444890121 pbc="F F F"
Ge       0.00000000       0.00000000       0.00000000       0.00000000       0.00000000       0.00616144
Ge       0.00000000       0.00000000       6.00000000       0.00000000       0.00000000      -0.00616144
