2
Properties=species:S:1:pos:R:3:forces:R:3 energy=12.920832996202785 pbc="F F F"
H        0.00000000       0.00000000       0.00000000       0.00000000       0.00000000     -86.27947998
H        0.00000000       0.00000000       0.18000000       0.00000000       0.00000000      86.27947998
2
Properties=species:S:1:pos:R:3:forces:R:3 energy=8.003498440019174 pbc="F F F"
H        0.00000000       0.00000000       0.00000000       0.00000000       0.00000000     -78.81211090
H        0.00000000       0.00000000       0.23878788       0.00000000       0.00000000      78.81211090
2
Properties=species:S:1:pos:R:3:forces:R:3 energy=3.8050082981868525 pbc="F F F"
H        0.00000000       0.00000000       0.00000000       0.00000000       0.00000000     -63.54829025
H        0.00000000       0.00000000       0.29757576       0.00000000       0.00000000      63.54829025
2
Properties=species:S:1:pos:R:3:forces:R:3 energy=0.5178636400089899 pbc="F F F"
H        0.00000000       0.00000000       0.00000000       0.00000000       0.00000000     -49.18282700
H        0.00000000       0.00000000       0.35636364       0.00000000       0.00000000      49.18282700
2
Properties=species:S:1:pos:R:3:forces:R:3 energy=-2.0213309375481883 pbc="F F F"
H        0.00000000       0.00000000       0.00000000       0.00000000       0.00000000     -36.89137650
H        0.00000000       0.00000000       0.41515152       0.00000000       0.00000000      36.89137650
2
Properties=species:S:1:pos:R:3:forces:R:3 energy=-3.860216469815535 pbc="F F F"
H        0.00000000       0.00000000       0.00000000       0.00000000       0.00000000     -26.35284805
H        0.00000000       0.00000000       0.47393939       0.00000000       0.00000000      26.35284805
2
Properties=species:S:1:pos:R:3:forces:R:3 energy=-5.121680828379566 pbc="F F F"
H        0.00000000       0.00000000       0.00000000       0.00000000       0.00000000     -17.07750511
H        0.00000000       0.00000000       0.53272727       0.00000000       0.00000000      17.07750511
2
Properties=species:S:1:pos:R:3:forces:R:3 energy=-5.884373520809089 pbc="F F F"
H        0.00000000       0.00000000       0.00000000       0.00000000       0.00000000      -9.37162590
H        0.00000000       0.00000000       0.59151515       0.00000000       0.00000000       9.37162590
2
Properties=species:S:1:pos:R:3:forces:R:3 energy=-6.3016038839521835 pbc="F F F"
H        0.00000000       0.00000000       0.00000000       0.00000000       0.00000000      -4.98629570
H        0.00000000       0.00000000       0.65030303       0.00000000       0.00000000       4.98629570
2
Properties=species:S:1:pos:R:3:forces:R:3 energy=-6.494900339631904 pbc="F F F"
H        0.00000000       0.00000000       0.00000000       0.00000000       0.00000000      -1.75883269
H        0.00000000       0.00000000       0.70909091       0.00000000       0.00000000       1.75883269
2
Properties=species:S:1:pos:R:3:forces:R:3 energy=-6.520028308972304 pbc="F F F"
H        0.00000000       0.00000000       0.00000000       0.00000000       0.00000000       0.64470339
H        0.00000000       0.00000000       0.76787879       0.00000000       0.00000000      -0.64470339
2
Properties=species:S:1:pos:R:3:forces:R:3 energy=-6.432902528169936 pbc="F F F"
H        0.00000000       0.00000000       0.00000000       0.00000000       0.00000000       2.12001395
H        0.00000000       0.00000000       0.82666667       0.00000000       0.00000000      -2.12001395
2
Properties=species:S:1:pos:R:3:forces:R:3 energy=-6.276265258678459 pbc="F F F"
H        0.00000000       0.00000000       0.00000000       0.00000000       0.00000000       3.21618247
H        0.00000000       0.00000000       0.88545455       0.00000000       0.00000000      -3.21618247
2
Properties=species:S:1:pos:R:3:forces:R:3 energy=-6.0607063882004795 pbc="F F F"
H        0.00000000       0.00000000       0.00000000       0.00000000       0.00000000       4.00048256
H        0.00000000       0.00000000       0.94424242       0.00000000       0.00000000      -4.00048256
2
Properties=species:S:1:pos:R:3:forces:R:3 energy=-5.813263122404524 pbc="F F F"
H        0.00000000       0.00000000       0.00000000       0.00000000       0.00000000       4.20791817
H        0.00000000       0.00000000       1.00303030       0.00000000       0.00000000      -4.20791817
2
Properties=species:S:1:pos:R:3:forces:R:3 energy=-5.552691700869982 pbc="F F F"
H        0.00000000       0.00000000       0.00000000       0.00000000       0.00000000       4.55317736
H        0.00000000       0.00000000       1.06181818       0.00000000       0.00000000      -4.55317736
2
Properties=species:S:1:pos:R:3:forces:R:3 energy=-5.265011217469982 pbc="F F F"
H        0.00000000       0.00000000       0.00000000       0.00000000       0.00000000       4.97609043
H        0.00000000       0.00000000       1.12060606       0.00000000       0.00000000      -4.97609043
2
Properties=species:S:1:pos:R:3:forces:R:3 energy=-4.9670629752534285 pbc="F F F"
H        0.00000000       0.00000000       0.00000000       0.00000000       0.00000000       4.84970236
H        0.00000000       0.00000000       1.17939394       0.00000000       0.00000000      -4.84970236
2
Properties=species:S:1:pos:R:3:forces:R:3 energy=-4.673824544338298 pbc="F F F"
H        0.00000000       0.00000000       0.00000000       0.00000000       0.00000000       4.95548010
H        0.00000000       0.00000000       1.23818182       0.00000000       0.00000000      -4.95548010
2
Properties=species:S:1:pos:R:3:forces:R:3 energy=-4.385546961941826 pbc="F F F"
H        0.00000000       0.00000000       0.00000000       0.00000000       0.00000000       4.79881668
H        0.00000000       0.00000000       1.29696970       0.00000000       0.00000000      -4.79881668
2
Properties=species:S:1:pos:R:3:forces:R:3 energy=-4.114587637881173 pbc="F F F"
H        0.00000000       0.00000000       0.00000000       0.00000000       0.00000000       4.44331169
H        0.00000000       0.00000000       1.35575758       0.00000000       0.00000000      -4.44331169
2
Properties=species:S:1:pos:R:3:forces:R:3 energy=-3.859490654391932 pbc="F F F"
H        0.00000000       0.00000000       0.00000000       0.00000000       0.00000000       4.02618408
H        0.00000000       0.00000000       1.41454545       0.00000000       0.00000000      -4.02618408
2
Properties=species:S:1:pos:R:3:forces:R:3 energy=-3.6356506805157363 pbc="F F F"
H        0.00000000       0.00000000       0.00000000       0.00000000       0.00000000       3.71004891
H        0.00000000       0.00000000       1.47333333       0.00000000       0.00000000      -3.71004891
2
Properties=species:S:1:pos:R:3:forces:R:3 energy=-3.427263692450043 pbc="F F F"
H        0.00000000       0.00000000       0.00000000       0.00000000       0.00000000       3.37415528
H        0.00000000       0.00000000       1.53212121       0.00000000       0.00000000      -3.37415528
2
Properties=species:S:1:pos:R:3:forces:R:3 energy=-3.2344109026672454 pbc="F F F"
H        0.00000000       0.00000000       0.00000000       0.00000000       0.00000000       3.16763830
H        0.00000000       0.00000000       1.59090909       0.00000000       0.00000000      -3.16763830
2
Properties=species:S:1:pos:R:3:forces:R:3 energy=-3.0607487686644355 pbc="F F F"
H        0.00000000       0.00000000       0.00000000       0.00000000       0.00000000       2.69000649
H        0.00000000       0.00000000       1.64969697       0.00000000       0.00000000      -2.69000649
2
Properties=species:S:1:pos:R:3:forces:R:3 energy=-2.921716806410685 pbc="F F F"
H        0.00000000       0.00000000       0.00000000       0.00000000       0.00000000       2.05332565
H        0.00000000       0.00000000       1.70848485       0.00000000       0.00000000      -2.05332565
2
Properties=species:S:1:pos:R:3:forces:R:3 energy=-2.815233575856942 pbc="F F F"
H        0.00000000       0.00000000       0.00000000       0.00000000       0.00000000       1.61152267
H        0.00000000       0.00000000       1.76727273       0.00000000       0.00000000      -1.61152267
2
Properties=species:S:1:pos:R:3:forces:R:3 energy=-2.7260287742367466 pbc="F F F"
H        0.00000000       0.00000000       0.00000000       0.00000000       0.00000000       1.46261036
H        0.00000000       0.00000000       1.82606061       0.00000000       0.00000000      -1.46261036
2
Properties=species:S:1:pos:R:3:forces:R:3 energy=-2.6442527182617614 pbc="F F F"
H        0.00000000       0.00000000       0.00000000       0.00000000       0.00000000       1.36447334
H        0.00000000       0.00000000       1.88484848       0.00000000       0.00000000      -1.36447334
2
Properties=species:S:1:pos:R:3:forces:R:3 energy=-2.5688161923572896 pbc="F F F"
H        0.00000000       0.00000000       0.00000000       0.00000000       0.00000000       1.11808264
H        0.00000000       0.00000000       1.94363636       0.00000000       0.00000000      -1.11808264
2
Properties=species:S:1:pos:R:3:forces:R:3 energy=-2.5128830820346395 pbc="F F F"
H        0.00000000       0.00000000       0.00000000       0.00000000       0.00000000       0.83358806
H        0.00000000       0.00000000       2.00242424       0.00000000       0.00000000      -0.83358806
2
Properties=species:S:1:pos:R:3:forces:R:3 energy=-2.46729463748391 pbc="F F F"
H        0.00000000       0.00000000       0.00000000       0.00000000       0.00000000       0.72250402
H        0.00000000       0.00000000       2.06121212       0.00000000       0.00000000      -0.72250402
2
Properties=species:S:1:pos:R:3:forces:R:3 energy=-2.428730047209902 pbc="F F F"
H        0.00000000       0.00000000       0.00000000       0.00000000       0.00000000       0.58477139
H        0.00000000       0.00000000       2.12000000       0.00000000       0.00000000      -0.58477139
2
Properties=species:S:1:pos:R:3:forces:R:3 energy=-2.3979278583987322 pbc="F F F"
H        0.00000000       0.00000000       0.00000000       0.00000000       0.00000000       0.47303677
H        0.00000000       0.00000000       2.17878788       0.00000000       0.00000000      -0.47303677
2
Properties=species:S:1:pos:R:3:forces:R:3 energy=-2.371850132883903 pbc="F F F"
H        0.00000000       0.00000000       0.00000000       0.00000000       0.00000000       0.42325068
H        0.00000000       0.00000000       2.23757576       0.00000000       0.00000000      -0.42325068
2
Properties=species:S:1:pos:R:3:forces:R:3 energy=-2.348250094439372 pbc="F F F"
H        0.00000000       0.00000000       0.00000000       0.00000000       0.00000000       0.36711392
H        0.00000000       0.00000000       2.29636364       0.00000000       0.00000000      -0.36711392
2
Properties=species:S:1:pos:R:3:forces:R:3 energy=-2.3307833775605795 pbc="F F F"
H        0.00000000       0.00000000       0.00000000       0.00000000       0.00000000       0.21565036
H        0.00000000       0.00000000       2.35515152       0.00000000       0.00000000      -0.21565036
2
Properties=species:S:1:pos:R:3:forces:R:3 energy=-2.3218473816787064 pbc="F F F"
H        0.00000000       0.00000000       0.00000000       0.00000000       0.00000000       0.10853951
H        0.00000000       0.00000000       2.41393939       0.00000000       0.00000000      -0.10853951
2
Properties=species:S:1:pos:R:3:forces:R:3 energy=-2.316642291281746 pbc="F F F"
H        0.00000000       0.00000000       0.00000000       0.00000000       0.00000000       0.07128785
H        0.00000000       0.00000000       2.47272727       0.00000000       0.00000000      -0.07128785
2
Properties=species:S:1:pos:R:3:forces:R:3 energy=-2.3133005466731458 pbc="F F F"
H        0.00000000       0.00000000       0.00000000       0.00000000       0.00000000       0.04449001
H        0.00000000       0.00000000       2.53151515       0.00000000       0.00000000      -0.04449001
2
Properties=species:S:1:pos:R:3:forces:R:3 energy=-2.311397708453225 pbc="F F F"
H        0.00000000       0.00000000       0.00000000       0.00000000       0.00000000       0.01721480
H        0.00000000       0.00000000       2.59030303       0.00000000       0.00000000      -0.01721480
2
Properties=species:S:1:pos:R:3:forces:R:3 energy=-2.3116782603140997 pbc="F F F"
H        0.00000000       0.00000000       0.00000000       0.00000000       0.00000000      -0.02808241
H        0.00000000       0.00000000       2.64909091       0.00000000       0.00000000       0.02808241
2
Properties=species:S:1:pos:R:3:forces:R:3 energy=-2.3145183062365002 pbc="F F F"
H        0.00000000       0.00000000       0.00000000       0.00000000       0.00000000      -0.06537916
H        0.00000000       0.00000000       2.70787879       0.00000000       0.00000000       0.06537916
2
Properties=species:S:1:pos:R:3:forces:R:3 energy=-2.318970913196696 pbc="F F F"
H        0.00000000       0.00000000       0.00000000       0.00000000       0.00000000      -0.08260378
H        0.00000000       0.00000000       2.76666667       0.00000000       0.00000000       0.08260378
2
Properties=species:S:1:pos:R:3:forces:R:3 energy=-2.323783197697339 pbc="F F F"
H        0.00000000       0.00000000       0.00000000       0.00000000       0.00000000      -0.07738537
H        0.00000000       0.00000000       2.82545455       0.00000000       0.00000000       0.07738537
2
Properties=species:S:1:pos:R:3:forces:R:3 energy=-2.327759155287306 pbc="F F F"
H        0.00000000       0.00000000       0.00000000       0.00000000       0.00000000      -0.05684837
H        0.00000000       0.00000000       2.88424242       0.00000000       0.00000000       0.05684837
2
Properties=species:S:1:pos:R:3:forces:R:3 energy=-2.330542587181711 pbc="F F F"
H        0.00000000       0.00000000       0.00000000       0.00000000       0.00000000      -0.03957833
H        0.00000000       0.00000000       2.94303030       0.00000000       0.00000000       0.03957833
2
Properties=species:S:1:pos:R:3:forces:R:3 energy=-2.332629448926777 pbc="F F F"
H        0.00000000       0.00000000       0.00000000       0.00000000       0.00000000      -0.03285179
H        0.00000000       0.00000000       3.00181818       0.00000000       0.00000000       0.03285179
2
Properties=species:S:1:pos:R:3:forces:R:3 energy=-2.3344646733048635 pbc="F F F"
H        0.00000000       0.00000000       0.00000000       0.00000000       0.00000000      -0.02915309
H        0.00000000       0.00000000       3.06060606       0.00000000       0.00000000       0.02915309
2
Properties=species:S:1:pos:R:3:forces:R:3 energy=-2.335941437861359 pbc="F F F"
H        0.00000000       0.00000000       0.00000000       0.00000000       0.00000000      -0.01988333
H        0.00000000       0.00000000       3.11939394       0.00000000       0.00000000       0.01988333
2
Properties=species:S:1:pos:R:3:forces:R:3 energy=-2.336699628931737 pbc="F F F"
H        0.00000000       0.00000000       0.00000000       0.00000000       0.00000000      -0.00561823
H        0.00000000       0.00000000       3.17818182       0.00000000       0.00000000       0.00561823
2
Properties=species:S:1:pos:R:3:forces:R:3 energy=-2.336645070779451 pbc="F F F"
H        0.00000000       0.00000000       0.00000000       0.00000000       0.00000000       0.00659699
H        0.00000000       0.00000000       3.23696970       0.00000000       0.00000000      -0.00659699
2
Properties=species:S:1:pos:R:3:forces:R:3 energy=-2.336052024202149 pbc="F F F"
H        0.00000000       0.00000000       0.00000000       0.00000000       0.00000000       0.01243372
H        0.00000000       0.00000000       3.29575758       0.00000000       0.00000000      -0.01243372
2
Properties=species:S:1:pos:R:3:forces:R:3 energy=-2.335297574177345 pbc="F F F"
H        0.00000000       0.00000000       0.00000000       0.00000000       0.00000000       0.01244915
H        0.00000000       0.00000000       3.35454545       0.00000000       0.00000000      -0.01244915
2
Properties=species:S:1:pos:R:3:forces:R:3 energy=-2.3346575348471945 pbc="F F F"
H        0.00000000       0.00000000       0.00000000       0.00000000       0.00000000       0.00891745
H        0.00000000       0.00000000       3.41333333       0.00000000       0.00000000      -0.00891745
2
Properties=species:S:1:pos:R:3:forces:R:3 energy=-2.334278320679907 pbc="F F F"
H        0.00000000       0.00000000       0.00000000       0.00000000       0.00000000       0.00390017
H        0.00000000       0.00000000       3.47212121       0.00000000       0.00000000      -0.00390017
2
Properties=species:S:1:pos:R:3:forces:R:3 energy=-2.334195076577179 pbc="F F F"
H        0.00000000       0.00000000       0.00000000       0.00000000       0.00000000      -0.00089661
H        0.00000000       0.00000000       3.53090909       0.00000000       0.00000000       0.00089661
2
Properties=species:S:1:pos:R:3:forces:R:3 energy=-2.334353151781402 pbc="F F F"
H        0.00000000       0.00000000       0.00000000       0.00000000       0.00000000      -0.00419121
H        0.00000000       0.00000000       3.58969697       0.00000000       0.00000000       0.00419121
2
Properties=species:S:1:pos:R:3:forces:R:3 energy=-2.334649124403339 pbc="F F F"
H        0.00000000       0.00000000       0.00000000       0.00000000       0.00000000      -0.00551415
H        0.00000000       0.00000000       3.64848485       0.00000000       0.00000000       0.00551415
2
Properties=species:S:1:pos:R:3:forces:R:3 energy=-2.3349713563392385 pbc="F F F"
H        0.00000000       0.00000000       0.00000000       0.00000000       0.00000000      -0.00533979
H        0.00000000       0.00000000       3.70727273       0.00000000       0.00000000       0.00533979
2
Properties=species:S:1:pos:R:3:forces:R:3 energy=-2.3352658141226934 pbc="F F F"
H        0.00000000       0.00000000       0.00000000       0.00000000       0.00000000      -0.00465778
H        0.00000000       0.00000000       3.76606061       0.00000000       0.00000000       0.00465778
2
Properties=species:S:1:pos:R:3:forces:R:3 energy=-2.335527029213503 pbc="F F F"
H        0.00000000       0.00000000       0.00000000       0.00000000       0.00000000      -0.00430248
H        0.00000000       0.00000000       3.82484848       0.00000000       0.00000000       0.00430248
2
Properties=species:S:1:pos:R:3:forces:R:3 energy=-2.3357833344587315 pbc="F F F"
H        0.00000000       0.00000000       0.00000000       0.00000000       0.00000000      -0.00453151
H        0.00000000       0.00000000       3.88363636       0.00000000       0.00000000       0.00453151
2
Properties=species:S:1:pos:R:3:forces:R:3 energy=-2.336064454114115 pbc="F F F"
H        0.00000000       0.00000000       0.00000000       0.00000000       0.00000000      -0.00502347
H        0.00000000       0.00000000       3.94242424       0.00000000       0.00000000       0.00502347
2
Properties=species:S:1:pos:R:3:forces:R:3 energy=-2.336368138310251 pbc="F F F"
H        0.00000000       0.00000000       0.00000000       0.00000000       0.00000000      -0.00516409
H        0.00000000       0.00000000       4.00121212       0.00000000       0.00000000       0.00516409
2
Properties=species:S:1:pos:R:3:forces:R:3 energy=-2.3366534990137278 pbc="F F F"
H        0.00000000       0.00000000       0.00000000       0.00000000       0.00000000      -0.00437884
H        0.00000000       0.00000000       4.06000000       0.00000000       0.00000000       0.00437884
2
Properties=species:S:1:pos:R:3:forces:R:3 energy=-2.3368577066532517 pbc="F F F"
H        0.00000000       0.00000000       0.00000000       0.00000000       0.00000000      -0.00235830
H        0.00000000       0.00000000       4.11878788       0.00000000       0.00000000       0.00235830
2
Properties=species:S:1:pos:R:3:forces:R:3 energy=-2.3369064900405934 pbc="F F F"
H        0.00000000       0.00000000       0.00000000       0.00000000       0.00000000       0.00086928
H        0.00000000       0.00000000       4.17757576       0.00000000       0.00000000      -0.00086928
2
Properties=species:S:1:pos:R:3:forces:R:3 energy=-2.336738459470908 pbc="F F F"
H        0.00000000       0.00000000       0.00000000       0.00000000       0.00000000       0.00499449
H        0.00000000       0.00000000       4.23636364       0.00000000       0.00000000      -0.00499449
2
Properties=species:S:1:pos:R:3:forces:R:3 energy=-2.336310832629418 pbc="F F F"
H        0.00000000       0.00000000       0.00000000       0.00000000       0.00000000       0.00954674
H        0.00000000       0.00000000       4.29515152       0.00000000       0.00000000      -0.00954674
2
Properties=species:S:1:pos:R:3:forces:R:3 energy=-2.335617081229061 pbc="F F F"
H        0.00000000       0.00000000       0.00000000       0.00000000       0.00000000       0.01402466
H        0.00000000       0.00000000       4.35393939       0.00000000       0.00000000      -0.01402466
2
Properties=species:S:1:pos:R:3:forces:R:3 energy=-2.334672626489709 pbc="F F F"
H        0.00000000       0.00000000       0.00000000       0.00000000       0.00000000       0.01799986
H        0.00000000       0.00000000       4.41272727       0.00000000       0.00000000      -0.01799986
2
Properties=species:S:1:pos:R:3:forces:R:3 energy=-2.3335162734114334 pbc="F F F"
H        0.00000000       0.00000000       0.00000000       0.00000000       0.00000000       0.02118129
H        0.00000000       0.00000000       4.47151515       0.00000000       0.00000000      -0.02118129
2
Properties=species:S:1:pos:R:3:forces:R:3 energy=-2.332200194719321 pbc="F F F"
H        0.00000000       0.00000000       0.00000000       0.00000000       0.00000000       0.02343834
H        0.00000000       0.00000000       4.53030303       0.00000000       0.00000000      -0.02343834
2
Properties=species:S:1:pos:R:3:forces:R:3 energy=-2.330778488949555 pbc="F F F"
H        0.00000000       0.00000000       0.00000000       0.00000000       0.00000000       0.02478107
H        0.00000000       0.00000000       4.58909091       0.00000000       0.00000000      -0.02478107
2
Properties=species:S:1:pos:R:3:forces:R:3 energy=-2.32930241192934 pbc="F F F"
H        0.00000000       0.00000000       0.00000000       0.00000000       0.00000000       0.02531348
H        0.00000000       0.00000000       4.64787879       0.00000000       0.00000000      -0.02531348
2
Properties=species:S:1:pos:R:3:forces:R:3 energy=-2.3278151295882763 pbc="F F F"
H        0.00000000       0.00000000       0.00000000       0.00000000       0.00000000       0.02517313
H        0.00000000       0.00000000       4.70666667       0.00000000       0.00000000      -0.02517313
2
Properties=species:S:1:pos:R:3:forces:R:3 energy=-2.3263536260494466 pbc="F F F"
H        0.00000000       0.00000000       0.00000000       0.00000000       0.00000000       0.02448039
H        0.00000000       0.00000000       4.76545455       0.00000000       0.00000000      -0.02448039
2
Properties=species:S:1:pos:R:3:forces:R:3 energy=-2.3249477486434267 pbc="F F F"
H        0.00000000       0.00000000       0.00000000       0.00000000       0.00000000       0.02331101
H        0.00000000       0.00000000       4.82424242       0.00000000       0.00000000      -0.02331101
2
Properties=species:S:1:pos:R:3:forces:R:3 energy=-2.3236216380980266 pbc="F F F"
H        0.00000000       0.00000000       0.00000000       0.00000000       0.00000000       0.02170181
H        0.00000000       0.00000000       4.88303030       0.00000000       0.00000000      -0.02170181
2
Properties=species:S:1:pos:R:3:forces:R:3 energy=-2.3224032630045826 pbc="F F F"
H        0.00000000       0.00000000       0.00000000       0.00000000       0.00000000       0.01967316
H        0.00000000       0.00000000       4.94181818       0.00000000       0.00000000      -0.01967316
2
Properties=species:S:1:pos:R:3:forces:R:3 energy=-2.3213163138832513 pbc="F F F"
H        0.00000000       0.00000000       0.00000000       0.00000000       0.00000000       0.01726732
H        0.00000000       0.00000000       5.00060606       0.00000000       0.00000000      -0.01726732
2
Properties=species:S:1:pos:R:3:forces:R:3 energy=-2.320378771929078 pbc="F F F"
H        0.00000000       0.00000000       0.00000000       0.00000000       0.00000000       0.01456899
H        0.00000000       0.00000000       5.05939394       0.00000000       0.00000000      -0.01456899
2
Properties=species:S:1:pos:R:3:forces:R:3 energy=-2.31960576810455 pbc="F F F"
H        0.00000000       0.00000000       0.00000000       0.00000000       0.00000000       0.01171474
H        0.00000000       0.00000000       5.11818182       0.00000000       0.00000000      -0.01171474
2
Properties=species:S:1:pos:R:3:forces:R:3 energy=-2.3190005230603568 pbc="F F F"
H        0.00000000       0.00000000       0.00000000       0.00000000       0.00000000       0.00887625
H        0.00000000       0.00000000       5.17696970       0.00000000       0.00000000      -0.00887625
2
Properties=species:S:1:pos:R:3:forces:R:3 energy=-2.3185576843767763 pbc="F F F"
H        0.00000000       0.00000000       0.00000000       0.00000000       0.00000000       0.00623547
H        0.00000000       0.00000000       5.23575758       0.00000000       0.00000000      -0.00623547
2
Properties=species:S:1:pos:R:3:forces:R:3 energy=-2.318261417655884 pbc="F F F"
H        0.00000000       0.00000000       0.00000000       0.00000000       0.00000000       0.00395032
H        0.00000000       0.00000000       5.29454545       0.00000000       0.00000000      -0.00395032
2
Properties=species:S:1:pos:R:3:forces:R:3 energy=-2.318083499333783 pbc="F F F"
H        0.00000000       0.00000000       0.00000000       0.00000000       0.00000000       0.00212933
H        0.00000000       0.00000000       5.35333333       0.00000000       0.00000000      -0.00212933
2
Properties=species:S:1:pos:R:3:forces:R:3 energy=-2.3180004817417363 pbc="F F F"
H        0.00000000       0.00000000       0.00000000       0.00000000       0.00000000       0.00081654
H        0.00000000       0.00000000       5.41212121       0.00000000       0.00000000      -0.00081654
2
Properties=species:S:1:pos:R:3:forces:R:3 energy=-2.317979387063348 pbc="F F F"
H        0.00000000       0.00000000       0.00000000       0.00000000       0.00000000      -0.00000964
H        0.00000000       0.00000000       5.47090909       0.00000000       0.00000000       0.00000964
2
Properties=species:S:1:pos:R:3:forces:R:3 energy=-2.31799391973607 pbc="F F F"
H        0.00000000       0.00000000       0.00000000       0.00000000       0.00000000      -0.00042358
H        0.00000000       0.00000000       5.52969697       0.00000000       0.00000000       0.00042358
2
Properties=species:S:1:pos:R:3:forces:R:3 energy=-2.3180225584343566 pbc="F F F"
H        0.00000000       0.00000000       0.00000000       0.00000000       0.00000000      -0.00053259
H        0.00000000       0.00000000       5.58848485       0.00000000       0.00000000       0.00053259
2
Properties=species:S:1:pos:R:3:forces:R:3 energy=-2.318052846911128 pbc="F F F"
H        0.00000000       0.00000000       0.00000000       0.00000000       0.00000000      -0.00045347
H        0.00000000       0.00000000       5.64727273       0.00000000       0.00000000       0.00045347
2
Properties=species:S:1:pos:R:3:forces:R:3 energy=-2.3180747178692034 pbc="F F F"
H        0.00000000       0.00000000       0.00000000       0.00000000       0.00000000      -0.00029099
H        0.00000000       0.00000000       5.70606061       0.00000000       0.00000000       0.00029099
2
Properties=species:S:1:pos:R:3:forces:R:3 energy=-2.3180866917329865 pbc="F F F"
H        0.00000000       0.00000000       0.00000000       0.00000000       0.00000000      -0.00012301
H        0.00000000       0.00000000       5.76484848       0.00000000       0.00000000       0.00012301
2
Properties=species:S:1:pos:R:3:forces:R:3 energy=-2.3180901539714815 pbc="F F F"
H        0.00000000       0.00000000       0.00000000       0.00000000       0.00000000       0.00000484
H        0.00000000       0.00000000       5.82363636       0.00000000       0.00000000      -0.00000484
2
Properties=species:S:1:pos:R:3:forces:R:3 energy=-2.318086970355656 pbc="F F F"
H        0.00000000       0.00000000       0.00000000       0.00000000       0.00000000       0.00007752
H        0.00000000       0.00000000       5.88242424       0.00000000       0.00000000      -0.00007752
2
Properties=species:S:1:pos:R:3:forces:R:3 energy=-2.318081871366968 pbc="F F F"
H        0.00000000       0.00000000       0.00000000       0.00000000       0.00000000       0.00010242
H        0.00000000       0.00000000       5.94121212       0.00000000       0.00000000      -0.00010242
2
Properties=species:S:1:pos:R:3:forces:R:3 energy=-2.318076729384265 pbc="F F F"
H        0.00000000       0.00000000       0.00000000       0.00000000       0.00000000       0.00010019
H        0.00000000       0.00000000       6.00000000       0.00000000       0.00000000      -0.00010019
