2
Properties=species:S:1:pos:R:3:forces:R:3 energy=0.32118761389473416 pbc="F F F"
He       0.00000000       0.00000000       0.00000000       0.00000000       0.00000000      -0.37720120
He       0.00000000       0.00000000       0.18000000       0.00000000       0.00000000       0.37720120
2
Properties=species:S:1:pos:R:3:forces:R:3 energy=0.29570281375397794 pbc="F F F"
He       0.00000000       0.00000000       0.00000000       0.00000000       0.00000000      -0.49368399
He       0.00000000       0.00000000       0.23878788       0.00000000       0.00000000       0.49368399
2
Properties=species:S:1:pos:R:3:forces:R:3 energy=0.26292741287281945 pbc="F F F"
He       0.00000000       0.00000000       0.00000000       0.00000000       0.00000000      -0.62103176
He       0.00000000       0.00000000       0.29757576       0.00000000       0.00000000       0.62103176
2
Properties=species:S:1:pos:R:3:forces:R:3 energy=0.2229942108947905 pbc="F F F"
He       0.00000000       0.00000000       0.00000000       0.00000000       0.00000000      -0.72764415
He       0.00000000       0.00000000       0.35636364       0.00000000       0.00000000       0.72764415
2
Properties=species:S:1:pos:R:3:forces:R:3 energy=0.17830360805417442 pbc="F F F"
He       0.00000000       0.00000000       0.00000000       0.00000000       0.00000000      -0.79768169
He       0.00000000       0.00000000       0.41515152       0.00000000       0.00000000       0.79768169
2
Properties=species:S:1:pos:R:3:forces:R:3 energy=0.13192739229394904 pbc="F F F"
He       0.00000000       0.00000000       0.00000000       0.00000000       0.00000000      -0.71423191
He       0.00000000       0.00000000       0.47393939       0.00000000       0.00000000       0.71423191
2
Properties=species:S:1:pos:R:3:forces:R:3 energy=0.08886139087636394 pbc="F F F"
He       0.00000000       0.00000000       0.00000000       0.00000000       0.00000000      -0.74137419
He       0.00000000       0.00000000       0.53272727       0.00000000       0.00000000       0.74137419
2
Properties=species:S:1:pos:R:3:forces:R:3 energy=0.05069729267013989 pbc="F F F"
He       0.00000000       0.00000000       0.00000000       0.00000000       0.00000000      -0.53783280
He       0.00000000       0.00000000       0.59151515       0.00000000       0.00000000       0.53783280
2
Properties=species:S:1:pos:R:3:forces:R:3 energy=0.02245834742987863 pbc="F F F"
He       0.00000000       0.00000000       0.00000000       0.00000000       0.00000000      -0.42798236
He       0.00000000       0.00000000       0.65030303       0.00000000       0.00000000       0.42798236
2
Properties=species:S:1:pos:R:3:forces:R:3 energy=0.005575079103489234 pbc="F F F"
He       0.00000000       0.00000000       0.00000000       0.00000000       0.00000000      -0.20005985
He       0.00000000       0.00000000       0.70909091       0.00000000       0.00000000       0.20005985
2
Properties=species:S:1:pos:R:3:forces:R:3 energy=-0.0024520769522127814 pbc="F F F"
He       0.00000000       0.00000000       0.00000000       0.00000000       0.00000000      -0.08093909
He       0.00000000       0.00000000       0.76787879       0.00000000       0.00000000       0.08093909
2
Properties=species:S:1:pos:R:3:forces:R:3 energy=-0.004299825929934465 pbc="F F F"
He       0.00000000       0.00000000       0.00000000       0.00000000       0.00000000       0.01532712
He       0.00000000       0.00000000       0.82666667       0.00000000       0.00000000      -0.01532712
2
Properties=species:S:1:pos:R:3:forces:R:3 energy=-0.0016766492329848934 pbc="F F F"
He       0.00000000       0.00000000       0.00000000       0.00000000       0.00000000       0.07508540
He       0.00000000       0.00000000       0.88545455       0.00000000       0.00000000      -0.07508540
2
Properties=species:S:1:pos:R:3:forces:R:3 energy=0.002637285864948535 pbc="F F F"
He       0.00000000       0.00000000       0.00000000       0.00000000       0.00000000       0.06678467
He       0.00000000       0.00000000       0.94424242       0.00000000       0.00000000      -0.06678467
2
Properties=species:S:1:pos:R:3:forces:R:3 energy=0.006700576076040877 pbc="F F F"
He       0.00000000       0.00000000       0.00000000       0.00000000       0.00000000       0.07817764
He       0.00000000       0.00000000       1.00303030       0.00000000       0.00000000      -0.07817764
2
Properties=species:S:1:pos:R:3:forces:R:3 energy=0.01155253530593918 pbc="F F F"
He       0.00000000       0.00000000       0.00000000       0.00000000       0.00000000       0.08508213
He       0.00000000       0.00000000       1.06181818       0.00000000       0.00000000      -0.08508213
2
Properties=species:S:1:pos:R:3:forces:R:3 energy=0.016393087329005053 pbc="F F F"
He       0.00000000       0.00000000       0.00000000       0.00000000       0.00000000       0.07247649
He       0.00000000       0.00000000       1.12060606       0.00000000       0.00000000      -0.07247649
2
Properties=species:S:1:pos:R:3:forces:R:3 energy=0.020096009103838935 pbc="F F F"
He       0.00000000       0.00000000       0.00000000       0.00000000       0.00000000       0.05178702
He       0.00000000       0.00000000       1.17939394       0.00000000       0.00000000      -0.05178702
2
Properties=species:S:1:pos:R:3:forces:R:3 energy=0.023100545462777414 pbc="F F F"
He       0.00000000       0.00000000       0.00000000       0.00000000       0.00000000       0.04824938
He       0.00000000       0.00000000       1.23818182       0.00000000       0.00000000      -0.04824938
2
Properties=species:S:1:pos:R:3:forces:R:3 energy=0.025519796996251405 pbc="F F F"
He       0.00000000       0.00000000       0.00000000       0.00000000       0.00000000       0.03183039
He       0.00000000       0.00000000       1.29696970       0.00000000       0.00000000      -0.03183039
2
Properties=species:S:1:pos:R:3:forces:R:3 energy=0.026863915686471472 pbc="F F F"
He       0.00000000       0.00000000       0.00000000       0.00000000       0.00000000       0.01375735
He       0.00000000       0.00000000       1.35575758       0.00000000       0.00000000      -0.01375735
2
Properties=species:S:1:pos:R:3:forces:R:3 energy=0.027170211447230277 pbc="F F F"
He       0.00000000       0.00000000       0.00000000       0.00000000       0.00000000      -0.00203655
He       0.00000000       0.00000000       1.41454545       0.00000000       0.00000000       0.00203655
2
Properties=species:S:1:pos:R:3:forces:R:3 energy=0.026757818713045986 pbc="F F F"
He       0.00000000       0.00000000       0.00000000       0.00000000       0.00000000      -0.01122087
He       0.00000000       0.00000000       1.47333333       0.00000000       0.00000000       0.01122087
2
Properties=species:S:1:pos:R:3:forces:R:3 energy=0.025818570454407316 pbc="F F F"
He       0.00000000       0.00000000       0.00000000       0.00000000       0.00000000      -0.02124373
He       0.00000000       0.00000000       1.53212121       0.00000000       0.00000000       0.02124373
2
Properties=species:S:1:pos:R:3:forces:R:3 energy=0.024349287400303128 pbc="F F F"
He       0.00000000       0.00000000       0.00000000       0.00000000       0.00000000      -0.02738806
He       0.00000000       0.00000000       1.59090909       0.00000000       0.00000000       0.02738806
2
Properties=species:S:1:pos:R:3:forces:R:3 energy=0.022686310710668168 pbc="F F F"
He       0.00000000       0.00000000       0.00000000       0.00000000       0.00000000      -0.02939501
He       0.00000000       0.00000000       1.64969697       0.00000000       0.00000000       0.02939501
2
Properties=species:S:1:pos:R:3:forces:R:3 energy=0.02088155996090764 pbc="F F F"
He       0.00000000       0.00000000       0.00000000       0.00000000       0.00000000      -0.03121819
He       0.00000000       0.00000000       1.70848485       0.00000000       0.00000000       0.03121819
2
Properties=species:S:1:pos:R:3:forces:R:3 energy=0.019168877209769907 pbc="F F F"
He       0.00000000       0.00000000       0.00000000       0.00000000       0.00000000      -0.02607807
He       0.00000000       0.00000000       1.76727273       0.00000000       0.00000000       0.02607807
2
Properties=species:S:1:pos:R:3:forces:R:3 energy=0.017940181280653108 pbc="F F F"
He       0.00000000       0.00000000       0.00000000       0.00000000       0.00000000      -0.01318809
He       0.00000000       0.00000000       1.82606061       0.00000000       0.00000000       0.01318809
2
Properties=species:S:1:pos:R:3:forces:R:3 energy=0.017570465455716888 pbc="F F F"
He       0.00000000       0.00000000       0.00000000       0.00000000       0.00000000      -0.00175897
He       0.00000000       0.00000000       1.88484848       0.00000000       0.00000000       0.00175897
2
Properties=species:S:1:pos:R:3:forces:R:3 energy=0.017612890413169015 pbc="F F F"
He       0.00000000       0.00000000       0.00000000       0.00000000       0.00000000       0.00292768
He       0.00000000       0.00000000       1.94363636       0.00000000       0.00000000      -0.00292768
2
Properties=species:S:1:pos:R:3:forces:R:3 energy=0.01783709040763061 pbc="F F F"
He       0.00000000       0.00000000       0.00000000       0.00000000       0.00000000       0.00393784
He       0.00000000       0.00000000       2.00242424       0.00000000       0.00000000      -0.00393784
2
Properties=species:S:1:pos:R:3:forces:R:3 energy=0.018067042597686107 pbc="F F F"
He       0.00000000       0.00000000       0.00000000       0.00000000       0.00000000       0.00418246
He       0.00000000       0.00000000       2.06121212       0.00000000       0.00000000      -0.00418246
2
Properties=species:S:1:pos:R:3:forces:R:3 energy=0.01832673139324232 pbc="F F F"
He       0.00000000       0.00000000       0.00000000       0.00000000       0.00000000       0.00460969
He       0.00000000       0.00000000       2.12000000       0.00000000       0.00000000      -0.00460969
2
Properties=species:S:1:pos:R:3:forces:R:3 energy=0.018642491830881205 pbc="F F F"
He       0.00000000       0.00000000       0.00000000       0.00000000       0.00000000       0.00645362
He       0.00000000       0.00000000       2.17878788       0.00000000       0.00000000      -0.00645362
2
Properties=species:S:1:pos:R:3:forces:R:3 energy=0.019056590028396627 pbc="F F F"
He       0.00000000       0.00000000       0.00000000       0.00000000       0.00000000       0.00702118
He       0.00000000       0.00000000       2.23757576       0.00000000       0.00000000      -0.00702118
2
Properties=species:S:1:pos:R:3:forces:R:3 energy=0.01943791150739903 pbc="F F F"
He       0.00000000       0.00000000       0.00000000       0.00000000       0.00000000       0.00606962
He       0.00000000       0.00000000       2.29636364       0.00000000       0.00000000      -0.00606962
2
Properties=species:S:1:pos:R:3:forces:R:3 energy=0.01979094325730346 pbc="F F F"
He       0.00000000       0.00000000       0.00000000       0.00000000       0.00000000       0.00610471
He       0.00000000       0.00000000       2.35515152       0.00000000       0.00000000      -0.00610471
2
Properties=species:S:1:pos:R:3:forces:R:3 energy=0.020173991113981195 pbc="F F F"
He       0.00000000       0.00000000       0.00000000       0.00000000       0.00000000       0.00701515
He       0.00000000       0.00000000       2.41393939       0.00000000       0.00000000      -0.00701515
2
Properties=species:S:1:pos:R:3:forces:R:3 energy=0.020611439049800413 pbc="F F F"
He       0.00000000       0.00000000       0.00000000       0.00000000       0.00000000       0.00773507
He       0.00000000       0.00000000       2.47272727       0.00000000       0.00000000      -0.00773507
2
Properties=species:S:1:pos:R:3:forces:R:3 energy=0.021063468826147017 pbc="F F F"
He       0.00000000       0.00000000       0.00000000       0.00000000       0.00000000       0.00744876
He       0.00000000       0.00000000       2.53151515       0.00000000       0.00000000      -0.00744876
2
Properties=species:S:1:pos:R:3:forces:R:3 energy=0.021467786907561744 pbc="F F F"
He       0.00000000       0.00000000       0.00000000       0.00000000       0.00000000       0.00617740
He       0.00000000       0.00000000       2.59030303       0.00000000       0.00000000      -0.00617740
2
Properties=species:S:1:pos:R:3:forces:R:3 energy=0.021778971743830623 pbc="F F F"
He       0.00000000       0.00000000       0.00000000       0.00000000       0.00000000       0.00434138
He       0.00000000       0.00000000       2.64909091       0.00000000       0.00000000      -0.00434138
2
Properties=species:S:1:pos:R:3:forces:R:3 energy=0.021972296485800423 pbc="F F F"
He       0.00000000       0.00000000       0.00000000       0.00000000       0.00000000       0.00220469
He       0.00000000       0.00000000       2.70787879       0.00000000       0.00000000      -0.00220469
2
Properties=species:S:1:pos:R:3:forces:R:3 energy=0.0220365926630941 pbc="F F F"
He       0.00000000       0.00000000       0.00000000       0.00000000       0.00000000       0.00000244
He       0.00000000       0.00000000       2.76666667       0.00000000       0.00000000      -0.00000244
2
Properties=species:S:1:pos:R:3:forces:R:3 energy=0.021978079730542756 pbc="F F F"
He       0.00000000       0.00000000       0.00000000       0.00000000       0.00000000      -0.00192563
He       0.00000000       0.00000000       2.82545455       0.00000000       0.00000000       0.00192563
2
Properties=species:S:1:pos:R:3:forces:R:3 energy=0.021819665948542382 pbc="F F F"
He       0.00000000       0.00000000       0.00000000       0.00000000       0.00000000      -0.00338481
He       0.00000000       0.00000000       2.88424242       0.00000000       0.00000000       0.00338481
2
Properties=species:S:1:pos:R:3:forces:R:3 energy=0.02158904398617063 pbc="F F F"
He       0.00000000       0.00000000       0.00000000       0.00000000       0.00000000      -0.00438848
He       0.00000000       0.00000000       2.94303030       0.00000000       0.00000000       0.00438848
2
Properties=species:S:1:pos:R:3:forces:R:3 energy=0.021310599340674787 pbc="F F F"
He       0.00000000       0.00000000       0.00000000       0.00000000       0.00000000      -0.00504221
He       0.00000000       0.00000000       3.00181818       0.00000000       0.00000000       0.00504221
2
Properties=species:S:1:pos:R:3:forces:R:3 energy=0.021001845938118307 pbc="F F F"
He       0.00000000       0.00000000       0.00000000       0.00000000       0.00000000      -0.00540547
He       0.00000000       0.00000000       3.06060606       0.00000000       0.00000000       0.00540547
2
Properties=species:S:1:pos:R:3:forces:R:3 energy=0.020681541373564497 pbc="F F F"
He       0.00000000       0.00000000       0.00000000       0.00000000       0.00000000      -0.00542697
He       0.00000000       0.00000000       3.11939394       0.00000000       0.00000000       0.00542697
2
Properties=species:S:1:pos:R:3:forces:R:3 energy=0.0203713597514107 pbc="F F F"
He       0.00000000       0.00000000       0.00000000       0.00000000       0.00000000      -0.00505353
He       0.00000000       0.00000000       3.17818182       0.00000000       0.00000000       0.00505353
2
Properties=species:S:1:pos:R:3:forces:R:3 energy=0.020094224240251198 pbc="F F F"
He       0.00000000       0.00000000       0.00000000       0.00000000       0.00000000      -0.00432976
He       0.00000000       0.00000000       3.23696970       0.00000000       0.00000000       0.00432976
2
Properties=species:S:1:pos:R:3:forces:R:3 energy=0.01986667807432375 pbc="F F F"
He       0.00000000       0.00000000       0.00000000       0.00000000       0.00000000      -0.00337812
He       0.00000000       0.00000000       3.29575758       0.00000000       0.00000000       0.00337812
2
Properties=species:S:1:pos:R:3:forces:R:3 energy=0.019698878267362507 pbc="F F F"
He       0.00000000       0.00000000       0.00000000       0.00000000       0.00000000      -0.00233259
He       0.00000000       0.00000000       3.35454545       0.00000000       0.00000000       0.00233259
2
Properties=species:S:1:pos:R:3:forces:R:3 energy=0.019592684650668057 pbc="F F F"
He       0.00000000       0.00000000       0.00000000       0.00000000       0.00000000      -0.00127978
He       0.00000000       0.00000000       3.41333333       0.00000000       0.00000000       0.00127978
2
Properties=species:S:1:pos:R:3:forces:R:3 energy=0.019547613160487927 pbc="F F F"
He       0.00000000       0.00000000       0.00000000       0.00000000       0.00000000      -0.00026119
He       0.00000000       0.00000000       3.47212121       0.00000000       0.00000000       0.00026119
2
Properties=species:S:1:pos:R:3:forces:R:3 energy=0.019560829452875052 pbc="F F F"
He       0.00000000       0.00000000       0.00000000       0.00000000       0.00000000       0.00069147
He       0.00000000       0.00000000       3.53090909       0.00000000       0.00000000      -0.00069147
2
Properties=species:S:1:pos:R:3:forces:R:3 energy=0.019627142097819874 pbc="F F F"
He       0.00000000       0.00000000       0.00000000       0.00000000       0.00000000       0.00154512
He       0.00000000       0.00000000       3.58969697       0.00000000       0.00000000      -0.00154512
2
Properties=species:S:1:pos:R:3:forces:R:3 energy=0.019739950759375232 pbc="F F F"
He       0.00000000       0.00000000       0.00000000       0.00000000       0.00000000       0.00227398
He       0.00000000       0.00000000       3.64848485       0.00000000       0.00000000      -0.00227398
2
Properties=species:S:1:pos:R:3:forces:R:3 energy=0.01989171607845499 pbc="F F F"
He       0.00000000       0.00000000       0.00000000       0.00000000       0.00000000       0.00286353
He       0.00000000       0.00000000       3.70727273       0.00000000       0.00000000      -0.00286353
2
Properties=species:S:1:pos:R:3:forces:R:3 energy=0.02007395657925771 pbc="F F F"
He       0.00000000       0.00000000       0.00000000       0.00000000       0.00000000       0.00330585
He       0.00000000       0.00000000       3.76606061       0.00000000       0.00000000      -0.00330585
2
Properties=species:S:1:pos:R:3:forces:R:3 energy=0.020277481791643136 pbc="F F F"
He       0.00000000       0.00000000       0.00000000       0.00000000       0.00000000       0.00359471
He       0.00000000       0.00000000       3.82484848       0.00000000       0.00000000      -0.00359471
2
Properties=species:S:1:pos:R:3:forces:R:3 energy=0.020493104561784804 pbc="F F F"
He       0.00000000       0.00000000       0.00000000       0.00000000       0.00000000       0.00372553
He       0.00000000       0.00000000       3.88363636       0.00000000       0.00000000      -0.00372553
2
Properties=species:S:1:pos:R:3:forces:R:3 energy=0.020712353758800497 pbc="F F F"
He       0.00000000       0.00000000       0.00000000       0.00000000       0.00000000       0.00369955
He       0.00000000       0.00000000       3.94242424       0.00000000       0.00000000      -0.00369955
2
Properties=species:S:1:pos:R:3:forces:R:3 energy=0.02092532630491396 pbc="F F F"
He       0.00000000       0.00000000       0.00000000       0.00000000       0.00000000       0.00352842
He       0.00000000       0.00000000       4.00121212       0.00000000       0.00000000      -0.00352842
2
Properties=species:S:1:pos:R:3:forces:R:3 energy=0.021124977014598943 pbc="F F F"
He       0.00000000       0.00000000       0.00000000       0.00000000       0.00000000       0.00323584
He       0.00000000       0.00000000       4.06000000       0.00000000       0.00000000      -0.00323584
2
Properties=species:S:1:pos:R:3:forces:R:3 energy=0.02130401852196128 pbc="F F F"
He       0.00000000       0.00000000       0.00000000       0.00000000       0.00000000       0.00285490
He       0.00000000       0.00000000       4.11878788       0.00000000       0.00000000      -0.00285490
2
Properties=species:S:1:pos:R:3:forces:R:3 energy=0.021459449823071037 pbc="F F F"
He       0.00000000       0.00000000       0.00000000       0.00000000       0.00000000       0.00242244
He       0.00000000       0.00000000       4.17757576       0.00000000       0.00000000      -0.00242244
2
Properties=species:S:1:pos:R:3:forces:R:3 energy=0.021588741479702443 pbc="F F F"
He       0.00000000       0.00000000       0.00000000       0.00000000       0.00000000       0.00197298
He       0.00000000       0.00000000       4.23636364       0.00000000       0.00000000      -0.00197298
2
Properties=species:S:1:pos:R:3:forces:R:3 energy=0.021691742683357676 pbc="F F F"
He       0.00000000       0.00000000       0.00000000       0.00000000       0.00000000       0.00153438
He       0.00000000       0.00000000       4.29515152       0.00000000       0.00000000      -0.00153438
2
Properties=species:S:1:pos:R:3:forces:R:3 energy=0.021769488729270668 pbc="F F F"
He       0.00000000       0.00000000       0.00000000       0.00000000       0.00000000       0.00112602
He       0.00000000       0.00000000       4.35393939       0.00000000       0.00000000      -0.00112602
2
Properties=species:S:1:pos:R:3:forces:R:3 energy=0.02182467857127503 pbc="F F F"
He       0.00000000       0.00000000       0.00000000       0.00000000       0.00000000       0.00075890
He       0.00000000       0.00000000       4.41272727       0.00000000       0.00000000      -0.00075890
2
Properties=species:S:1:pos:R:3:forces:R:3 energy=0.021859766817333044 pbc="F F F"
He       0.00000000       0.00000000       0.00000000       0.00000000       0.00000000       0.00043711
He       0.00000000       0.00000000       4.47151515       0.00000000       0.00000000      -0.00043711
2
Properties=species:S:1:pos:R:3:forces:R:3 energy=0.021877441383398012 pbc="F F F"
He       0.00000000       0.00000000       0.00000000       0.00000000       0.00000000       0.00015981
He       0.00000000       0.00000000       4.53030303       0.00000000       0.00000000      -0.00015981
2
Properties=species:S:1:pos:R:3:forces:R:3 energy=0.021879431425267375 pbc="F F F"
He       0.00000000       0.00000000       0.00000000       0.00000000       0.00000000      -0.00007649
He       0.00000000       0.00000000       4.58909091       0.00000000       0.00000000       0.00007649
2
Properties=species:S:1:pos:R:3:forces:R:3 energy=0.021868891592432396 pbc="F F F"
He       0.00000000       0.00000000       0.00000000       0.00000000       0.00000000      -0.00027584
He       0.00000000       0.00000000       4.64787879       0.00000000       0.00000000       0.00027584
2
Properties=species:S:1:pos:R:3:forces:R:3 energy=0.021847780166166356 pbc="F F F"
He       0.00000000       0.00000000       0.00000000       0.00000000       0.00000000      -0.00044137
He       0.00000000       0.00000000       4.70666667       0.00000000       0.00000000       0.00044137
2
Properties=species:S:1:pos:R:3:forces:R:3 energy=0.02181781271527952 pbc="F F F"
He       0.00000000       0.00000000       0.00000000       0.00000000       0.00000000      -0.00057464
He       0.00000000       0.00000000       4.76545455       0.00000000       0.00000000       0.00057464
2
Properties=species:S:1:pos:R:3:forces:R:3 energy=0.021780700861178753 pbc="F F F"
He       0.00000000       0.00000000       0.00000000       0.00000000       0.00000000      -0.00067571
He       0.00000000       0.00000000       4.82424242       0.00000000       0.00000000       0.00067571
2
Properties=species:S:1:pos:R:3:forces:R:3 energy=0.02173862938726048 pbc="F F F"
He       0.00000000       0.00000000       0.00000000       0.00000000       0.00000000      -0.00074383
He       0.00000000       0.00000000       4.88303030       0.00000000       0.00000000       0.00074383
2
Properties=species:S:1:pos:R:3:forces:R:3 energy=0.02169401831530376 pbc="F F F"
He       0.00000000       0.00000000       0.00000000       0.00000000       0.00000000      -0.00077834
He       0.00000000       0.00000000       4.94181818       0.00000000       0.00000000       0.00077834
2
Properties=species:S:1:pos:R:3:forces:R:3 energy=0.02164809248061584 pbc="F F F"
He       0.00000000       0.00000000       0.00000000       0.00000000       0.00000000      -0.00077960
He       0.00000000       0.00000000       5.00060606       0.00000000       0.00000000       0.00077960
2
Properties=species:S:1:pos:R:3:forces:R:3 energy=0.02160278899203369 pbc="F F F"
He       0.00000000       0.00000000       0.00000000       0.00000000       0.00000000      -0.00074963
He       0.00000000       0.00000000       5.05939394       0.00000000       0.00000000       0.00074963
2
Properties=species:S:1:pos:R:3:forces:R:3 energy=0.021560519388750116 pbc="F F F"
He       0.00000000       0.00000000       0.00000000       0.00000000       0.00000000      -0.00069243
He       0.00000000       0.00000000       5.11818182       0.00000000       0.00000000       0.00069243
2
Properties=species:S:1:pos:R:3:forces:R:3 energy=0.02152178545761631 pbc="F F F"
He       0.00000000       0.00000000       0.00000000       0.00000000       0.00000000      -0.00061390
He       0.00000000       0.00000000       5.17696970       0.00000000       0.00000000       0.00061390
2
Properties=species:S:1:pos:R:3:forces:R:3 energy=0.021488040426237778 pbc="F F F"
He       0.00000000       0.00000000       0.00000000       0.00000000       0.00000000      -0.00052145
He       0.00000000       0.00000000       5.23575758       0.00000000       0.00000000       0.00052145
2
Properties=species:S:1:pos:R:3:forces:R:3 energy=0.021460497262963008 pbc="F F F"
He       0.00000000       0.00000000       0.00000000       0.00000000       0.00000000      -0.00042308
He       0.00000000       0.00000000       5.29454545       0.00000000       0.00000000       0.00042308
2
Properties=species:S:1:pos:R:3:forces:R:3 energy=0.02143869809116304 pbc="F F F"
He       0.00000000       0.00000000       0.00000000       0.00000000       0.00000000      -0.00032648
He       0.00000000       0.00000000       5.35333333       0.00000000       0.00000000       0.00032648
2
Properties=species:S:1:pos:R:3:forces:R:3 energy=0.021421945003876553 pbc="F F F"
He       0.00000000       0.00000000       0.00000000       0.00000000       0.00000000      -0.00023804
He       0.00000000       0.00000000       5.41212121       0.00000000       0.00000000       0.00023804
2
Properties=species:S:1:pos:R:3:forces:R:3 energy=0.021410492333039214 pbc="F F F"
He       0.00000000       0.00000000       0.00000000       0.00000000       0.00000000      -0.00016217
He       0.00000000       0.00000000       5.47090909       0.00000000       0.00000000       0.00016217
2
Properties=species:S:1:pos:R:3:forces:R:3 energy=0.021402924091517225 pbc="F F F"
He       0.00000000       0.00000000       0.00000000       0.00000000       0.00000000      -0.00010103
He       0.00000000       0.00000000       5.52969697       0.00000000       0.00000000       0.00010103
2
Properties=species:S:1:pos:R:3:forces:R:3 energy=0.021398299842407237 pbc="F F F"
He       0.00000000       0.00000000       0.00000000       0.00000000       0.00000000      -0.00005477
He       0.00000000       0.00000000       5.58848485       0.00000000       0.00000000       0.00005477
2
Properties=species:S:1:pos:R:3:forces:R:3 energy=0.021396154915586697 pbc="F F F"
He       0.00000000       0.00000000       0.00000000       0.00000000       0.00000000      -0.00002200
He       0.00000000       0.00000000       5.64727273       0.00000000       0.00000000       0.00002200
2
Properties=species:S:1:pos:R:3:forces:R:3 energy=0.021395308361221988 pbc="F F F"
He       0.00000000       0.00000000       0.00000000       0.00000000       0.00000000      -0.00000039
He       0.00000000       0.00000000       5.70606061       0.00000000       0.00000000       0.00000039
2
Properties=species:S:1:pos:R:3:forces:R:3 energy=0.02139577034171131 pbc="F F F"
He       0.00000000       0.00000000       0.00000000       0.00000000       0.00000000       0.00001260
He       0.00000000       0.00000000       5.76484848       0.00000000       0.00000000      -0.00001260
2
Properties=species:S:1:pos:R:3:forces:R:3 energy=0.02139683492535638 pbc="F F F"
He       0.00000000       0.00000000       0.00000000       0.00000000       0.00000000       0.00001934
He       0.00000000       0.00000000       5.82363636       0.00000000       0.00000000      -0.00001934
2
Properties=species:S:1:pos:R:3:forces:R:3 energy=0.021397795438000588 pbc="F F F"
He       0.00000000       0.00000000       0.00000000       0.00000000       0.00000000       0.00002186
He       0.00000000       0.00000000       5.88242424       0.00000000       0.00000000      -0.00002186
2
Properties=species:S:1:pos:R:3:forces:R:3 energy=0.021399374952848594 pbc="F F F"
He       0.00000000       0.00000000       0.00000000       0.00000000       0.00000000       0.00002182
He       0.00000000       0.00000000       5.94121212       0.00000000       0.00000000      -0.00002182
2
Properties=species:S:1:pos:R:3:forces:R:3 energy=0.021400627014444326 pbc="F F F"
He       0.00000000       0.00000000       0.00000000       0.00000000       0.00000000       0.00002058
He       0.00000000       0.00000000       6.00000000       0.00000000       0.00000000      -0.00002058
