2
Properties=species:S:1:pos:R:3:forces:R:3 energy=7489341.952009575 pbc="F F F"
Hf       0.00000000       0.00000000       0.00000000       0.00000000       0.00000000 -70752688.00000000
Hf       0.00000000       0.00000000       0.18000000       0.00000000       0.00000000 70752688.00000000
2
Properties=species:S:1:pos:R:3:forces:R:3 energy=3858392.202009576 pbc="F F F"
Hf       0.00000000       0.00000000       0.00000000       0.00000000       0.00000000 -51726268.00000000
Hf       0.00000000       0.00000000       0.23878788       0.00000000       0.00000000 51726268.00000000
2
Properties=species:S:1:pos:R:3:forces:R:3 energy=1446687.2020095757 pbc="F F F"
Hf       0.00000000       0.00000000       0.00000000       0.00000000       0.00000000 -30559512.00000000
Hf       0.00000000       0.00000000       0.29757576       0.00000000       0.00000000 30559512.00000000
2
Properties=species:S:1:pos:R:3:forces:R:3 energy=207926.67075957888 pbc="F F F"
Hf       0.00000000       0.00000000       0.00000000       0.00000000       0.00000000 -2044376.87500000
Hf       0.00000000       0.00000000       0.35636364       0.00000000       0.00000000 2044376.87500000
2
Properties=species:S:1:pos:R:3:forces:R:3 energy=27740.694197078887 pbc="F F F"
Hf       0.00000000       0.00000000       0.00000000       0.00000000       0.00000000 -1082244.50000000
Hf       0.00000000       0.00000000       0.41515152       0.00000000       0.00000000 1082244.50000000
2
Properties=species:S:1:pos:R:3:forces:R:3 energy=-2346.6505294804465 pbc="F F F"
Hf       0.00000000       0.00000000       0.00000000       0.00000000       0.00000000   13638.58886719
Hf       0.00000000       0.00000000       0.47393939       0.00000000       0.00000000  -13638.58886719
2
Properties=species:S:1:pos:R:3:forces:R:3 energy=-1491.9622970490682 pbc="F F F"
Hf       0.00000000       0.00000000       0.00000000       0.00000000       0.00000000   26340.43750000
Hf       0.00000000       0.00000000       0.53272727       0.00000000       0.00000000  -26340.43750000
2
Properties=species:S:1:pos:R:3:forces:R:3 energy=-494.79396207545943 pbc="F F F"
Hf       0.00000000       0.00000000       0.00000000       0.00000000       0.00000000   10435.52636719
Hf       0.00000000       0.00000000       0.59151515       0.00000000       0.00000000  -10435.52636719
2
Properties=species:S:1:pos:R:3:forces:R:3 energy=-147.27144008379625 pbc="F F F"
Hf       0.00000000       0.00000000       0.00000000       0.00000000       0.00000000    2878.88916016
Hf       0.00000000       0.00000000       0.65030303       0.00000000       0.00000000   -2878.88916016
2
Properties=species:S:1:pos:R:3:forces:R:3 energy=-41.05273963684683 pbc="F F F"
Hf       0.00000000       0.00000000       0.00000000       0.00000000       0.00000000    1178.10595703
Hf       0.00000000       0.00000000       0.70909091       0.00000000       0.00000000   -1178.10595703
2
Properties=species:S:1:pos:R:3:forces:R:3 energy=6.921438728047306 pbc="F F F"
Hf       0.00000000       0.00000000       0.00000000       0.00000000       0.00000000     458.87899780
Hf       0.00000000       0.00000000       0.76787879       0.00000000       0.00000000    -458.87899780
2
Properties=species:S:1:pos:R:3:forces:R:3 energy=13.960524195426453 pbc="F F F"
Hf       0.00000000       0.00000000       0.00000000       0.00000000       0.00000000    -151.30395508
Hf       0.00000000       0.00000000       0.82666667       0.00000000       0.00000000     151.30395508
2
Properties=species:S:1:pos:R:3:forces:R:3 energy=34.26841234047391 pbc="F F F"
Hf       0.00000000       0.00000000       0.00000000       0.00000000       0.00000000     305.73507690
Hf       0.00000000       0.00000000       0.88545455       0.00000000       0.00000000    -305.73507690
2
Properties=species:S:1:pos:R:3:forces:R:3 energy=57.335989857757745 pbc="F F F"
Hf       0.00000000       0.00000000       0.00000000       0.00000000       0.00000000     396.54827881
Hf       0.00000000       0.00000000       0.94424242       0.00000000       0.00000000    -396.54827881
2
Properties=species:S:1:pos:R:3:forces:R:3 energy=62.96237099041198 pbc="F F F"
Hf       0.00000000       0.00000000       0.00000000       0.00000000       0.00000000    -111.28037262
Hf       0.00000000       0.00000000       1.00303030       0.00000000       0.00000000     111.28037262
2
Properties=species:S:1:pos:R:3:forces:R:3 energy=65.1455225269688 pbc="F F F"
Hf       0.00000000       0.00000000       0.00000000       0.00000000       0.00000000     -19.16209793
Hf       0.00000000       0.00000000       1.06181818       0.00000000       0.00000000      19.16209793
2
Properties=species:S:1:pos:R:3:forces:R:3 energy=55.726920920529196 pbc="F F F"
Hf       0.00000000       0.00000000       0.00000000       0.00000000       0.00000000    -195.56588745
Hf       0.00000000       0.00000000       1.12060606       0.00000000       0.00000000     195.56588745
2
Properties=species:S:1:pos:R:3:forces:R:3 energy=44.85237156165808 pbc="F F F"
Hf       0.00000000       0.00000000       0.00000000       0.00000000       0.00000000    -227.23202515
Hf       0.00000000       0.00000000       1.17939394       0.00000000       0.00000000     227.23202515
2
Properties=species:S:1:pos:R:3:forces:R:3 energy=33.31646828356538 pbc="F F F"
Hf       0.00000000       0.00000000       0.00000000       0.00000000       0.00000000    -167.58096313
Hf       0.00000000       0.00000000       1.23818182       0.00000000       0.00000000     167.58096313
2
Properties=species:S:1:pos:R:3:forces:R:3 energy=25.30324737597995 pbc="F F F"
Hf       0.00000000       0.00000000       0.00000000       0.00000000       0.00000000    -114.09184265
Hf       0.00000000       0.00000000       1.29696970       0.00000000       0.00000000     114.09184265
2
Properties=species:S:1:pos:R:3:forces:R:3 energy=19.37113859810105 pbc="F F F"
Hf       0.00000000       0.00000000       0.00000000       0.00000000       0.00000000     -92.69854736
Hf       0.00000000       0.00000000       1.35575758       0.00000000       0.00000000      92.69854736
2
Properties=species:S:1:pos:R:3:forces:R:3 energy=14.087105190078983 pbc="F F F"
Hf       0.00000000       0.00000000       0.00000000       0.00000000       0.00000000     -87.75080109
Hf       0.00000000       0.00000000       1.41454545       0.00000000       0.00000000      87.75080109
2
Properties=species:S:1:pos:R:3:forces:R:3 energy=9.184633378136002 pbc="F F F"
Hf       0.00000000       0.00000000       0.00000000       0.00000000       0.00000000     -76.08798218
Hf       0.00000000       0.00000000       1.47333333       0.00000000       0.00000000      76.08798218
2
Properties=species:S:1:pos:R:3:forces:R:3 energy=5.2932112201293835 pbc="F F F"
Hf       0.00000000       0.00000000       0.00000000       0.00000000       0.00000000     -57.47663879
Hf       0.00000000       0.00000000       1.53212121       0.00000000       0.00000000      57.47663879
2
Properties=species:S:1:pos:R:3:forces:R:3 energy=2.315110059670991 pbc="F F F"
Hf       0.00000000       0.00000000       0.00000000       0.00000000       0.00000000     -44.95907593
Hf       0.00000000       0.00000000       1.59090909       0.00000000       0.00000000      44.95907593
2
Properties=species:S:1:pos:R:3:forces:R:3 energy=-0.076231007668183 pbc="F F F"
Hf       0.00000000       0.00000000       0.00000000       0.00000000       0.00000000     -36.02769470
Hf       0.00000000       0.00000000       1.64969697       0.00000000       0.00000000      36.02769470
2
Properties=species:S:1:pos:R:3:forces:R:3 energy=-2.0168287388922432 pbc="F F F"
Hf       0.00000000       0.00000000       0.00000000       0.00000000       0.00000000     -30.77572823
Hf       0.00000000       0.00000000       1.70848485       0.00000000       0.00000000      30.77572823
2
Properties=species:S:1:pos:R:3:forces:R:3 energy=-3.6740337858347387 pbc="F F F"
Hf       0.00000000       0.00000000       0.00000000       0.00000000       0.00000000     -25.56973457
Hf       0.00000000       0.00000000       1.76727273       0.00000000       0.00000000      25.56973457
2
Properties=species:S:1:pos:R:3:forces:R:3 energy=-5.0899240304677935 pbc="F F F"
Hf       0.00000000       0.00000000       0.00000000       0.00000000       0.00000000     -22.80330086
Hf       0.00000000       0.00000000       1.82606061       0.00000000       0.00000000      22.80330086
2
Properties=species:S:1:pos:R:3:forces:R:3 energy=-6.308151006084623 pbc="F F F"
Hf       0.00000000       0.00000000       0.00000000       0.00000000       0.00000000     -18.84127426
Hf       0.00000000       0.00000000       1.88484848       0.00000000       0.00000000      18.84127426
2
Properties=species:S:1:pos:R:3:forces:R:3 energy=-7.318617028457255 pbc="F F F"
Hf       0.00000000       0.00000000       0.00000000       0.00000000       0.00000000     -15.36223602
Hf       0.00000000       0.00000000       1.94363636       0.00000000       0.00000000      15.36223602
2
Properties=species:S:1:pos:R:3:forces:R:3 energy=-8.114941915038623 pbc="F F F"
Hf       0.00000000       0.00000000       0.00000000       0.00000000       0.00000000     -11.87155342
Hf       0.00000000       0.00000000       2.00242424       0.00000000       0.00000000      11.87155342
2
Properties=species:S:1:pos:R:3:forces:R:3 energy=-8.731974699650314 pbc="F F F"
Hf       0.00000000       0.00000000       0.00000000       0.00000000       0.00000000      -9.20179939
Hf       0.00000000       0.00000000       2.06121212       0.00000000       0.00000000       9.20179939
2
Properties=species:S:1:pos:R:3:forces:R:3 energy=-9.195523665957758 pbc="F F F"
Hf       0.00000000       0.00000000       0.00000000       0.00000000       0.00000000      -6.53575420
Hf       0.00000000       0.00000000       2.12000000       0.00000000       0.00000000       6.53575420
2
Properties=species:S:1:pos:R:3:forces:R:3 energy=-9.509256721409587 pbc="F F F"
Hf       0.00000000       0.00000000       0.00000000       0.00000000       0.00000000      -4.29501104
Hf       0.00000000       0.00000000       2.17878788       0.00000000       0.00000000       4.29501104
2
Properties=species:S:1:pos:R:3:forces:R:3 energy=-9.712387325316143 pbc="F F F"
Hf       0.00000000       0.00000000       0.00000000       0.00000000       0.00000000      -2.67734408
Hf       0.00000000       0.00000000       2.23757576       0.00000000       0.00000000       2.67734408
2
Properties=species:S:1:pos:R:3:forces:R:3 energy=-9.835641441480188 pbc="F F F"
Hf       0.00000000       0.00000000       0.00000000       0.00000000       0.00000000      -1.59444416
Hf       0.00000000       0.00000000       2.29636364       0.00000000       0.00000000       1.59444416
2
Properties=species:S:1:pos:R:3:forces:R:3 energy=-9.899830385093331 pbc="F F F"
Hf       0.00000000       0.00000000       0.00000000       0.00000000       0.00000000      -0.56117493
Hf       0.00000000       0.00000000       2.35515152       0.00000000       0.00000000       0.56117493
2
Properties=species:S:1:pos:R:3:forces:R:3 energy=-9.903696458985328 pbc="F F F"
Hf       0.00000000       0.00000000       0.00000000       0.00000000       0.00000000       0.38127506
Hf       0.00000000       0.00000000       2.41393939       0.00000000       0.00000000      -0.38127506
2
Properties=species:S:1:pos:R:3:forces:R:3 energy=-9.861060694176466 pbc="F F F"
Hf       0.00000000       0.00000000       0.00000000       0.00000000       0.00000000       1.01281261
Hf       0.00000000       0.00000000       2.47272727       0.00000000       0.00000000      -1.01281261
2
Properties=species:S:1:pos:R:3:forces:R:3 energy=-9.789746999752042 pbc="F F F"
Hf       0.00000000       0.00000000       0.00000000       0.00000000       0.00000000       1.39485848
Hf       0.00000000       0.00000000       2.53151515       0.00000000       0.00000000      -1.39485848
2
Properties=species:S:1:pos:R:3:forces:R:3 energy=-9.698165530294512 pbc="F F F"
Hf       0.00000000       0.00000000       0.00000000       0.00000000       0.00000000       1.70422530
Hf       0.00000000       0.00000000       2.59030303       0.00000000       0.00000000      -1.70422530
2
Properties=species:S:1:pos:R:3:forces:R:3 energy=-9.592193835558637 pbc="F F F"
Hf       0.00000000       0.00000000       0.00000000       0.00000000       0.00000000       1.87849045
Hf       0.00000000       0.00000000       2.64909091       0.00000000       0.00000000      -1.87849045
2
Properties=species:S:1:pos:R:3:forces:R:3 energy=-9.478960786413515 pbc="F F F"
Hf       0.00000000       0.00000000       0.00000000       0.00000000       0.00000000       1.96669555
Hf       0.00000000       0.00000000       2.70787879       0.00000000       0.00000000      -1.96669555
2
Properties=species:S:1:pos:R:3:forces:R:3 energy=-9.361551277210262 pbc="F F F"
Hf       0.00000000       0.00000000       0.00000000       0.00000000       0.00000000       2.02228999
Hf       0.00000000       0.00000000       2.76666667       0.00000000       0.00000000      -2.02228999
2
Properties=species:S:1:pos:R:3:forces:R:3 energy=-9.241965635097381 pbc="F F F"
Hf       0.00000000       0.00000000       0.00000000       0.00000000       0.00000000       2.03873396
Hf       0.00000000       0.00000000       2.82545455       0.00000000       0.00000000      -2.03873396
2
Properties=species:S:1:pos:R:3:forces:R:3 energy=-9.122713285191809 pbc="F F F"
Hf       0.00000000       0.00000000       0.00000000       0.00000000       0.00000000       2.01123357
Hf       0.00000000       0.00000000       2.88424242       0.00000000       0.00000000      -2.01123357
2
Properties=species:S:1:pos:R:3:forces:R:3 energy=-9.006153162108644 pbc="F F F"
Hf       0.00000000       0.00000000       0.00000000       0.00000000       0.00000000       1.95032382
Hf       0.00000000       0.00000000       2.94303030       0.00000000       0.00000000      -1.95032382
2
Properties=species:S:1:pos:R:3:forces:R:3 energy=-8.893672348805042 pbc="F F F"
Hf       0.00000000       0.00000000       0.00000000       0.00000000       0.00000000       1.87536633
Hf       0.00000000       0.00000000       3.00181818       0.00000000       0.00000000      -1.87536633
2
Properties=species:S:1:pos:R:3:forces:R:3 energy=-8.785773568486299 pbc="F F F"
Hf       0.00000000       0.00000000       0.00000000       0.00000000       0.00000000       1.79342616
Hf       0.00000000       0.00000000       3.06060606       0.00000000       0.00000000      -1.79342616
2
Properties=species:S:1:pos:R:3:forces:R:3 energy=-8.683224791600635 pbc="F F F"
Hf       0.00000000       0.00000000       0.00000000       0.00000000       0.00000000       1.69055510
Hf       0.00000000       0.00000000       3.11939394       0.00000000       0.00000000      -1.69055510
2
Properties=species:S:1:pos:R:3:forces:R:3 energy=-8.587540467522814 pbc="F F F"
Hf       0.00000000       0.00000000       0.00000000       0.00000000       0.00000000       1.56128716
Hf       0.00000000       0.00000000       3.17818182       0.00000000       0.00000000      -1.56128716
2
Properties=species:S:1:pos:R:3:forces:R:3 energy=-8.499811433346784 pbc="F F F"
Hf       0.00000000       0.00000000       0.00000000       0.00000000       0.00000000       1.42416692
Hf       0.00000000       0.00000000       3.23696970       0.00000000       0.00000000      -1.42416692
2
Properties=species:S:1:pos:R:3:forces:R:3 energy=-8.419773309263471 pbc="F F F"
Hf       0.00000000       0.00000000       0.00000000       0.00000000       0.00000000       1.30280232
Hf       0.00000000       0.00000000       3.29575758       0.00000000       0.00000000      -1.30280232
2
Properties=species:S:1:pos:R:3:forces:R:3 energy=-8.346113014358757 pbc="F F F"
Hf       0.00000000       0.00000000       0.00000000       0.00000000       0.00000000       1.20758200
Hf       0.00000000       0.00000000       3.35454545       0.00000000       0.00000000      -1.20758200
2
Properties=species:S:1:pos:R:3:forces:R:3 energy=-8.277361646642346 pbc="F F F"
Hf       0.00000000       0.00000000       0.00000000       0.00000000       0.00000000       1.13440430
Hf       0.00000000       0.00000000       3.41333333       0.00000000       0.00000000      -1.13440430
2
Properties=species:S:1:pos:R:3:forces:R:3 energy=-8.212426445949248 pbc="F F F"
Hf       0.00000000       0.00000000       0.00000000       0.00000000       0.00000000       1.07715535
Hf       0.00000000       0.00000000       3.47212121       0.00000000       0.00000000      -1.07715535
2
Properties=species:S:1:pos:R:3:forces:R:3 energy=-8.150409663304256 pbc="F F F"
Hf       0.00000000       0.00000000       0.00000000       0.00000000       0.00000000       1.03536725
Hf       0.00000000       0.00000000       3.53090909       0.00000000       0.00000000      -1.03536725
2
Properties=species:S:1:pos:R:3:forces:R:3 energy=-8.090361248668795 pbc="F F F"
Hf       0.00000000       0.00000000       0.00000000       0.00000000       0.00000000       1.01032460
Hf       0.00000000       0.00000000       3.58969697       0.00000000       0.00000000      -1.01032460
2
Properties=species:S:1:pos:R:3:forces:R:3 energy=-8.031326264520294 pbc="F F F"
Hf       0.00000000       0.00000000       0.00000000       0.00000000       0.00000000       1.00032520
Hf       0.00000000       0.00000000       3.64848485       0.00000000       0.00000000      -1.00032520
2
Properties=species:S:1:pos:R:3:forces:R:3 energy=-7.9725456021741765 pbc="F F F"
Hf       0.00000000       0.00000000       0.00000000       0.00000000       0.00000000       1.00071037
Hf       0.00000000       0.00000000       3.70727273       0.00000000       0.00000000      -1.00071037
2
Properties=species:S:1:pos:R:3:forces:R:3 energy=-7.9135704356344725 pbc="F F F"
Hf       0.00000000       0.00000000       0.00000000       0.00000000       0.00000000       1.00585687
Hf       0.00000000       0.00000000       3.76606061       0.00000000       0.00000000      -1.00585687
2
Properties=species:S:1:pos:R:3:forces:R:3 energy=-7.854290479846172 pbc="F F F"
Hf       0.00000000       0.00000000       0.00000000       0.00000000       0.00000000       1.01038122
Hf       0.00000000       0.00000000       3.82484848       0.00000000       0.00000000      -1.01038122
2
Properties=species:S:1:pos:R:3:forces:R:3 energy=-7.794880494635987 pbc="F F F"
Hf       0.00000000       0.00000000       0.00000000       0.00000000       0.00000000       1.00959611
Hf       0.00000000       0.00000000       3.88363636       0.00000000       0.00000000      -1.00959611
2
Properties=species:S:1:pos:R:3:forces:R:3 energy=-7.735761326137831 pbc="F F F"
Hf       0.00000000       0.00000000       0.00000000       0.00000000       0.00000000       1.00000787
Hf       0.00000000       0.00000000       3.94242424       0.00000000       0.00000000      -1.00000787
2
Properties=species:S:1:pos:R:3:forces:R:3 energy=-7.677511477850775 pbc="F F F"
Hf       0.00000000       0.00000000       0.00000000       0.00000000       0.00000000       0.97987133
Hf       0.00000000       0.00000000       4.00121212       0.00000000       0.00000000      -0.97987133
2
Properties=species:S:1:pos:R:3:forces:R:3 energy=-7.620757111647136 pbc="F F F"
Hf       0.00000000       0.00000000       0.00000000       0.00000000       0.00000000       0.94942611
Hf       0.00000000       0.00000000       4.06000000       0.00000000       0.00000000      -0.94942611
2
Properties=species:S:1:pos:R:3:forces:R:3 energy=-7.56604808278263 pbc="F F F"
Hf       0.00000000       0.00000000       0.00000000       0.00000000       0.00000000       0.91053092
Hf       0.00000000       0.00000000       4.11878788       0.00000000       0.00000000      -0.91053092
2
Properties=species:S:1:pos:R:3:forces:R:3 energy=-7.513814305296653 pbc="F F F"
Hf       0.00000000       0.00000000       0.00000000       0.00000000       0.00000000       0.86575884
Hf       0.00000000       0.00000000       4.17757576       0.00000000       0.00000000      -0.86575884
2
Properties=species:S:1:pos:R:3:forces:R:3 energy=-7.464325513957314 pbc="F F F"
Hf       0.00000000       0.00000000       0.00000000       0.00000000       0.00000000       0.81746125
Hf       0.00000000       0.00000000       4.23636364       0.00000000       0.00000000      -0.81746125
2
Properties=species:S:1:pos:R:3:forces:R:3 energy=-7.417739119039645 pbc="F F F"
Hf       0.00000000       0.00000000       0.00000000       0.00000000       0.00000000       0.76725954
Hf       0.00000000       0.00000000       4.29515152       0.00000000       0.00000000      -0.76725954
2
Properties=species:S:1:pos:R:3:forces:R:3 energy=-7.374134665313884 pbc="F F F"
Hf       0.00000000       0.00000000       0.00000000       0.00000000       0.00000000       0.71603632
Hf       0.00000000       0.00000000       4.35393939       0.00000000       0.00000000      -0.71603632
2
Properties=species:S:1:pos:R:3:forces:R:3 energy=-7.33356135737018 pbc="F F F"
Hf       0.00000000       0.00000000       0.00000000       0.00000000       0.00000000       0.66421026
Hf       0.00000000       0.00000000       4.41272727       0.00000000       0.00000000      -0.66421026
2
Properties=species:S:1:pos:R:3:forces:R:3 energy=-7.296042007364396 pbc="F F F"
Hf       0.00000000       0.00000000       0.00000000       0.00000000       0.00000000       0.61208159
Hf       0.00000000       0.00000000       4.47151515       0.00000000       0.00000000      -0.61208159
2
Properties=species:S:1:pos:R:3:forces:R:3 energy=-7.261590245505311 pbc="F F F"
Hf       0.00000000       0.00000000       0.00000000       0.00000000       0.00000000       0.56003380
Hf       0.00000000       0.00000000       4.53030303       0.00000000       0.00000000      -0.56003380
2
Properties=species:S:1:pos:R:3:forces:R:3 energy=-7.230185749864971 pbc="F F F"
Hf       0.00000000       0.00000000       0.00000000       0.00000000       0.00000000       0.50862056
Hf       0.00000000       0.00000000       4.58909091       0.00000000       0.00000000      -0.50862056
2
Properties=species:S:1:pos:R:3:forces:R:3 energy=-7.201764519566194 pbc="F F F"
Hf       0.00000000       0.00000000       0.00000000       0.00000000       0.00000000       0.45856220
Hf       0.00000000       0.00000000       4.64787879       0.00000000       0.00000000      -0.45856220
2
Properties=species:S:1:pos:R:3:forces:R:3 energy=-7.176226973014787 pbc="F F F"
Hf       0.00000000       0.00000000       0.00000000       0.00000000       0.00000000       0.41069478
Hf       0.00000000       0.00000000       4.70666667       0.00000000       0.00000000      -0.41069478
2
Properties=species:S:1:pos:R:3:forces:R:3 energy=-7.153418310540863 pbc="F F F"
Hf       0.00000000       0.00000000       0.00000000       0.00000000       0.00000000       0.36593625
Hf       0.00000000       0.00000000       4.76545455       0.00000000       0.00000000      -0.36593625
2
Properties=species:S:1:pos:R:3:forces:R:3 energy=-7.1331214520444854 pbc="F F F"
Hf       0.00000000       0.00000000       0.00000000       0.00000000       0.00000000       0.32517901
Hf       0.00000000       0.00000000       4.82424242       0.00000000       0.00000000      -0.32517901
2
Properties=species:S:1:pos:R:3:forces:R:3 energy=-7.115090865587333 pbc="F F F"
Hf       0.00000000       0.00000000       0.00000000       0.00000000       0.00000000       0.28920248
Hf       0.00000000       0.00000000       4.88303030       0.00000000       0.00000000      -0.28920248
2
Properties=species:S:1:pos:R:3:forces:R:3 energy=-7.0990166350474215 pbc="F F F"
Hf       0.00000000       0.00000000       0.00000000       0.00000000       0.00000000       0.25852954
Hf       0.00000000       0.00000000       4.94181818       0.00000000       0.00000000      -0.25852954
2
Properties=species:S:1:pos:R:3:forces:R:3 energy=-7.084585321045141 pbc="F F F"
Hf       0.00000000       0.00000000       0.00000000       0.00000000       0.00000000       0.23330967
Hf       0.00000000       0.00000000       5.00060606       0.00000000       0.00000000      -0.23330967
2
Properties=species:S:1:pos:R:3:forces:R:3 energy=-7.071483867507363 pbc="F F F"
Hf       0.00000000       0.00000000       0.00000000       0.00000000       0.00000000       0.21320237
Hf       0.00000000       0.00000000       5.05939394       0.00000000       0.00000000      -0.21320237
2
Properties=species:S:1:pos:R:3:forces:R:3 energy=-7.05943183335704 pbc="F F F"
Hf       0.00000000       0.00000000       0.00000000       0.00000000       0.00000000       0.19737478
Hf       0.00000000       0.00000000       5.11818182       0.00000000       0.00000000      -0.19737478
2
Properties=species:S:1:pos:R:3:forces:R:3 energy=-7.048217673318931 pbc="F F F"
Hf       0.00000000       0.00000000       0.00000000       0.00000000       0.00000000       0.18457237
Hf       0.00000000       0.00000000       5.17696970       0.00000000       0.00000000      -0.18457237
2
Properties=species:S:1:pos:R:3:forces:R:3 energy=-7.037700588247419 pbc="F F F"
Hf       0.00000000       0.00000000       0.00000000       0.00000000       0.00000000       0.17331655
Hf       0.00000000       0.00000000       5.23575758       0.00000000       0.00000000      -0.17331655
2
Properties=species:S:1:pos:R:3:forces:R:3 energy=-7.027842870857728 pbc="F F F"
Hf       0.00000000       0.00000000       0.00000000       0.00000000       0.00000000       0.16212675
Hf       0.00000000       0.00000000       5.29454545       0.00000000       0.00000000      -0.16212675
2
Properties=species:S:1:pos:R:3:forces:R:3 energy=-7.018662218842274 pbc="F F F"
Hf       0.00000000       0.00000000       0.00000000       0.00000000       0.00000000       0.14980476
Hf       0.00000000       0.00000000       5.35333333       0.00000000       0.00000000      -0.14980476
2
Properties=species:S:1:pos:R:3:forces:R:3 energy=-7.010262116232441 pbc="F F F"
Hf       0.00000000       0.00000000       0.00000000       0.00000000       0.00000000       0.13563116
Hf       0.00000000       0.00000000       5.41212121       0.00000000       0.00000000      -0.13563116
2
Properties=species:S:1:pos:R:3:forces:R:3 energy=-7.002757446801899 pbc="F F F"
Hf       0.00000000       0.00000000       0.00000000       0.00000000       0.00000000       0.11947303
Hf       0.00000000       0.00000000       5.47090909       0.00000000       0.00000000      -0.11947303
2
Properties=species:S:1:pos:R:3:forces:R:3 energy=-6.996245801473737 pbc="F F F"
Hf       0.00000000       0.00000000       0.00000000       0.00000000       0.00000000       0.10178388
Hf       0.00000000       0.00000000       5.52969697       0.00000000       0.00000000      -0.10178388
2
Properties=species:S:1:pos:R:3:forces:R:3 energy=-6.990799801408598 pbc="F F F"
Hf       0.00000000       0.00000000       0.00000000       0.00000000       0.00000000       0.08350345
Hf       0.00000000       0.00000000       5.58848485       0.00000000       0.00000000      -0.08350345
2
Properties=species:S:1:pos:R:3:forces:R:3 energy=-6.986413682739497 pbc="F F F"
Hf       0.00000000       0.00000000       0.00000000       0.00000000       0.00000000       0.06586783
Hf       0.00000000       0.00000000       5.64727273       0.00000000       0.00000000      -0.06586783
2
Properties=species:S:1:pos:R:3:forces:R:3 energy=-6.983018463494038 pbc="F F F"
Hf       0.00000000       0.00000000       0.00000000       0.00000000       0.00000000       0.05015276
Hf       0.00000000       0.00000000       5.70606061       0.00000000       0.00000000      -0.05015276
2
Properties=species:S:1:pos:R:3:forces:R:3 energy=-6.980459042739533 pbc="F F F"
Hf       0.00000000       0.00000000       0.00000000       0.00000000       0.00000000       0.03740845
Hf       0.00000000       0.00000000       5.76484848       0.00000000       0.00000000      -0.03740845
2
Properties=species:S:1:pos:R:3:forces:R:3 energy=-6.9785457433456 pbc="F F F"
Hf       0.00000000       0.00000000       0.00000000       0.00000000       0.00000000       0.02828683
Hf       0.00000000       0.00000000       5.82363636       0.00000000       0.00000000      -0.02828683
2
Properties=species:S:1:pos:R:3:forces:R:3 energy=-6.977061798826692 pbc="F F F"
Hf       0.00000000       0.00000000       0.00000000       0.00000000       0.00000000       0.02278720
Hf       0.00000000       0.00000000       5.88242424       0.00000000       0.00000000      -0.02278720
2
Properties=species:S:1:pos:R:3:forces:R:3 energy=-6.975809218408312 pbc="F F F"
Hf       0.00000000       0.00000000       0.00000000       0.00000000       0.00000000       0.02024832
Hf       0.00000000       0.00000000       5.94121212       0.00000000       0.00000000      -0.02024832
2
Properties=species:S:1:pos:R:3:forces:R:3 energy=-6.974648812837896 pbc="F F F"
Hf       0.00000000       0.00000000       0.00000000       0.00000000       0.00000000       0.01939954
Hf       0.00000000       0.00000000       6.00000000       0.00000000       0.00000000      -0.01939954
