2
Properties=species:S:1:pos:R:3:forces:R:3 energy=7489400.952009611 pbc="F F F"
Hf       0.00000000       0.00000000       0.00000000       0.00000000       0.00000000 -70753176.00000000
Hf       0.00000000       0.00000000       0.18000000       0.00000000       0.00000000 70753176.00000000
2
Properties=species:S:1:pos:R:3:forces:R:3 energy=3858435.7020096104 pbc="F F F"
Hf       0.00000000       0.00000000       0.00000000       0.00000000       0.00000000 -51726936.00000000
Hf       0.00000000       0.00000000       0.23878788       0.00000000       0.00000000 51726936.00000000
2
Properties=species:S:1:pos:R:3:forces:R:3 energy=1446676.8270096106 pbc="F F F"
Hf       0.00000000       0.00000000       0.00000000       0.00000000       0.00000000 -30559398.00000000
Hf       0.00000000       0.00000000       0.29757576       0.00000000       0.00000000 30559398.00000000
2
Properties=species:S:1:pos:R:3:forces:R:3 energy=207924.88950961374 pbc="F F F"
Hf       0.00000000       0.00000000       0.00000000       0.00000000       0.00000000 -2044353.37500000
Hf       0.00000000       0.00000000       0.35636364       0.00000000       0.00000000 2044353.37500000
2
Properties=species:S:1:pos:R:3:forces:R:3 energy=27740.7899002419 pbc="F F F"
Hf       0.00000000       0.00000000       0.00000000       0.00000000       0.00000000 -1082245.75000000
Hf       0.00000000       0.00000000       0.41515152       0.00000000       0.00000000 1082245.75000000
2
Properties=species:S:1:pos:R:3:forces:R:3 energy=-2346.6312423362256 pbc="F F F"
Hf       0.00000000       0.00000000       0.00000000       0.00000000       0.00000000   13638.41015625
Hf       0.00000000       0.00000000       0.47393939       0.00000000       0.00000000  -13638.41015625
2
Properties=species:S:1:pos:R:3:forces:R:3 energy=-1491.9605880298473 pbc="F F F"
Hf       0.00000000       0.00000000       0.00000000       0.00000000       0.00000000   26340.44531250
Hf       0.00000000       0.00000000       0.53272727       0.00000000       0.00000000  -26340.44531250
2
Properties=species:S:1:pos:R:3:forces:R:3 energy=-494.79686121053527 pbc="F F F"
Hf       0.00000000       0.00000000       0.00000000       0.00000000       0.00000000   10435.56835938
Hf       0.00000000       0.00000000       0.59151515       0.00000000       0.00000000  -10435.56835938
2
Properties=species:S:1:pos:R:3:forces:R:3 energy=-147.27131797546988 pbc="F F F"
Hf       0.00000000       0.00000000       0.00000000       0.00000000       0.00000000    2878.89013672
Hf       0.00000000       0.00000000       0.65030303       0.00000000       0.00000000   -2878.89013672
2
Properties=species:S:1:pos:R:3:forces:R:3 energy=-41.05256793745601 pbc="F F F"
Hf       0.00000000       0.00000000       0.00000000       0.00000000       0.00000000    1178.10363770
Hf       0.00000000       0.00000000       0.70909091       0.00000000       0.00000000   -1178.10363770
2
Properties=species:S:1:pos:R:3:forces:R:3 energy=6.921461657412587 pbc="F F F"
Hf       0.00000000       0.00000000       0.00000000       0.00000000       0.00000000     458.87802124
Hf       0.00000000       0.00000000       0.76787879       0.00000000       0.00000000    -458.87802124
2
Properties=species:S:1:pos:R:3:forces:R:3 energy=13.960524230272497 pbc="F F F"
Hf       0.00000000       0.00000000       0.00000000       0.00000000       0.00000000    -151.30432129
Hf       0.00000000       0.00000000       0.82666667       0.00000000       0.00000000     151.30432129
2
Properties=species:S:1:pos:R:3:forces:R:3 energy=34.268473410476204 pbc="F F F"
Hf       0.00000000       0.00000000       0.00000000       0.00000000       0.00000000     305.73437500
Hf       0.00000000       0.00000000       0.88545455       0.00000000       0.00000000    -305.73437500
2
Properties=species:S:1:pos:R:3:forces:R:3 energy=57.336050927760034 pbc="F F F"
Hf       0.00000000       0.00000000       0.00000000       0.00000000       0.00000000     396.54873657
Hf       0.00000000       0.00000000       0.94424242       0.00000000       0.00000000    -396.54873657
2
Properties=species:S:1:pos:R:3:forces:R:3 energy=62.96243206674992 pbc="F F F"
Hf       0.00000000       0.00000000       0.00000000       0.00000000       0.00000000    -111.28043365
Hf       0.00000000       0.00000000       1.00303030       0.00000000       0.00000000     111.28043365
2
Properties=species:S:1:pos:R:3:forces:R:3 energy=65.1455073030258 pbc="F F F"
Hf       0.00000000       0.00000000       0.00000000       0.00000000       0.00000000     -19.16258621
Hf       0.00000000       0.00000000       1.06181818       0.00000000       0.00000000      19.16258621
2
Properties=species:S:1:pos:R:3:forces:R:3 energy=55.726943846726655 pbc="F F F"
Hf       0.00000000       0.00000000       0.00000000       0.00000000       0.00000000    -195.56616211
Hf       0.00000000       0.00000000       1.12060606       0.00000000       0.00000000     195.56616211
2
Properties=species:S:1:pos:R:3:forces:R:3 energy=44.85234108209382 pbc="F F F"
Hf       0.00000000       0.00000000       0.00000000       0.00000000       0.00000000    -227.23188782
Hf       0.00000000       0.00000000       1.17939394       0.00000000       0.00000000     227.23188782
2
Properties=species:S:1:pos:R:3:forces:R:3 energy=33.31647976567104 pbc="F F F"
Hf       0.00000000       0.00000000       0.00000000       0.00000000       0.00000000    -167.58108521
Hf       0.00000000       0.00000000       1.23818182       0.00000000       0.00000000     167.58108521
2
Properties=species:S:1:pos:R:3:forces:R:3 energy=25.303274116874675 pbc="F F F"
Hf       0.00000000       0.00000000       0.00000000       0.00000000       0.00000000    -114.09207153
Hf       0.00000000       0.00000000       1.29696970       0.00000000       0.00000000     114.09207153
2
Properties=species:S:1:pos:R:3:forces:R:3 energy=19.37114626234163 pbc="F F F"
Hf       0.00000000       0.00000000       0.00000000       0.00000000       0.00000000     -92.69858551
Hf       0.00000000       0.00000000       1.35575758       0.00000000       0.00000000      92.69858551
2
Properties=species:S:1:pos:R:3:forces:R:3 energy=14.087120483714088 pbc="F F F"
Hf       0.00000000       0.00000000       0.00000000       0.00000000       0.00000000     -87.75091553
Hf       0.00000000       0.00000000       1.41454545       0.00000000       0.00000000      87.75091553
2
Properties=species:S:1:pos:R:3:forces:R:3 energy=9.184637234014955 pbc="F F F"
Hf       0.00000000       0.00000000       0.00000000       0.00000000       0.00000000     -76.08797455
Hf       0.00000000       0.00000000       1.47333333       0.00000000       0.00000000      76.08797455
2
Properties=species:S:1:pos:R:3:forces:R:3 energy=5.293211258143249 pbc="F F F"
Hf       0.00000000       0.00000000       0.00000000       0.00000000       0.00000000     -57.47662354
Hf       0.00000000       0.00000000       1.53212121       0.00000000       0.00000000      57.47662354
2
Properties=species:S:1:pos:R:3:forces:R:3 energy=2.3151196280923765 pbc="F F F"
Hf       0.00000000       0.00000000       0.00000000       0.00000000       0.00000000     -44.95911026
Hf       0.00000000       0.00000000       1.59090909       0.00000000       0.00000000      44.95911026
2
Properties=species:S:1:pos:R:3:forces:R:3 energy=-0.07623097598996151 pbc="F F F"
Hf       0.00000000       0.00000000       0.00000000       0.00000000       0.00000000     -36.02769852
Hf       0.00000000       0.00000000       1.64969697       0.00000000       0.00000000      36.02769852
2
Properties=species:S:1:pos:R:3:forces:R:3 energy=-2.016821071483846 pbc="F F F"
Hf       0.00000000       0.00000000       0.00000000       0.00000000       0.00000000     -30.77575493
Hf       0.00000000       0.00000000       1.70848485       0.00000000       0.00000000      30.77575493
2
Properties=species:S:1:pos:R:3:forces:R:3 energy=-3.674033747820873 pbc="F F F"
Hf       0.00000000       0.00000000       0.00000000       0.00000000       0.00000000     -25.56974792
Hf       0.00000000       0.00000000       1.76727273       0.00000000       0.00000000      25.56974792
2
Properties=species:S:1:pos:R:3:forces:R:3 energy=-5.089924036803438 pbc="F F F"
Hf       0.00000000       0.00000000       0.00000000       0.00000000       0.00000000     -22.80329323
Hf       0.00000000       0.00000000       1.82606061       0.00000000       0.00000000      22.80329323
2
Properties=species:S:1:pos:R:3:forces:R:3 energy=-6.30814909873599 pbc="F F F"
Hf       0.00000000       0.00000000       0.00000000       0.00000000       0.00000000     -18.84126472
Hf       0.00000000       0.00000000       1.88484848       0.00000000       0.00000000      18.84126472
2
Properties=species:S:1:pos:R:3:forces:R:3 energy=-7.318617034792899 pbc="F F F"
Hf       0.00000000       0.00000000       0.00000000       0.00000000       0.00000000     -15.36223507
Hf       0.00000000       0.00000000       1.94363636       0.00000000       0.00000000      15.36223507
2
Properties=species:S:1:pos:R:3:forces:R:3 energy=-8.114941915038623 pbc="F F F"
Hf       0.00000000       0.00000000       0.00000000       0.00000000       0.00000000     -11.87155342
Hf       0.00000000       0.00000000       2.00242424       0.00000000       0.00000000      11.87155342
2
Properties=species:S:1:pos:R:3:forces:R:3 energy=-8.731974699650314 pbc="F F F"
Hf       0.00000000       0.00000000       0.00000000       0.00000000       0.00000000      -9.20179653
Hf       0.00000000       0.00000000       2.06121212       0.00000000       0.00000000       9.20179653
2
Properties=species:S:1:pos:R:3:forces:R:3 energy=-9.195523710307269 pbc="F F F"
Hf       0.00000000       0.00000000       0.00000000       0.00000000       0.00000000      -6.53575516
Hf       0.00000000       0.00000000       2.12000000       0.00000000       0.00000000       6.53575516
2
Properties=species:S:1:pos:R:3:forces:R:3 energy=-9.509256721409587 pbc="F F F"
Hf       0.00000000       0.00000000       0.00000000       0.00000000       0.00000000      -4.29501200
Hf       0.00000000       0.00000000       2.17878788       0.00000000       0.00000000       4.29501200
2
Properties=species:S:1:pos:R:3:forces:R:3 energy=-9.712387325316143 pbc="F F F"
Hf       0.00000000       0.00000000       0.00000000       0.00000000       0.00000000      -2.67734075
Hf       0.00000000       0.00000000       2.23757576       0.00000000       0.00000000       2.67734075
2
Properties=species:S:1:pos:R:3:forces:R:3 energy=-9.83564144464801 pbc="F F F"
Hf       0.00000000       0.00000000       0.00000000       0.00000000       0.00000000      -1.59444690
Hf       0.00000000       0.00000000       2.29636364       0.00000000       0.00000000       1.59444690
2
Properties=species:S:1:pos:R:3:forces:R:3 energy=-9.899830385093331 pbc="F F F"
Hf       0.00000000       0.00000000       0.00000000       0.00000000       0.00000000      -0.56117684
Hf       0.00000000       0.00000000       2.35515152       0.00000000       0.00000000       0.56117684
2
Properties=species:S:1:pos:R:3:forces:R:3 energy=-9.90369356945198 pbc="F F F"
Hf       0.00000000       0.00000000       0.00000000       0.00000000       0.00000000       0.38127553
Hf       0.00000000       0.00000000       2.41393939       0.00000000       0.00000000      -0.38127553
2
Properties=species:S:1:pos:R:3:forces:R:3 energy=-9.861058786827833 pbc="F F F"
Hf       0.00000000       0.00000000       0.00000000       0.00000000       0.00000000       1.01281309
Hf       0.00000000       0.00000000       2.47272727       0.00000000       0.00000000      -1.01281309
2
Properties=species:S:1:pos:R:3:forces:R:3 energy=-9.789745127249452 pbc="F F F"
Hf       0.00000000       0.00000000       0.00000000       0.00000000       0.00000000       1.39485860
Hf       0.00000000       0.00000000       2.53151515       0.00000000       0.00000000      -1.39485860
2
Properties=species:S:1:pos:R:3:forces:R:3 energy=-9.698167437643145 pbc="F F F"
Hf       0.00000000       0.00000000       0.00000000       0.00000000       0.00000000       1.70422530
Hf       0.00000000       0.00000000       2.59030303       0.00000000       0.00000000      -1.70422530
2
Properties=species:S:1:pos:R:3:forces:R:3 energy=-9.592191928210005 pbc="F F F"
Hf       0.00000000       0.00000000       0.00000000       0.00000000       0.00000000       1.87849092
Hf       0.00000000       0.00000000       2.64909091       0.00000000       0.00000000      -1.87849092
2
Properties=species:S:1:pos:R:3:forces:R:3 energy=-9.47895887589706 pbc="F F F"
Hf       0.00000000       0.00000000       0.00000000       0.00000000       0.00000000       1.96669531
Hf       0.00000000       0.00000000       2.70787879       0.00000000       0.00000000      -1.96669531
2
Properties=species:S:1:pos:R:3:forces:R:3 energy=-9.36155124553204 pbc="F F F"
Hf       0.00000000       0.00000000       0.00000000       0.00000000       0.00000000       2.02228975
Hf       0.00000000       0.00000000       2.76666667       0.00000000       0.00000000      -2.02228975
2
Properties=species:S:1:pos:R:3:forces:R:3 energy=-9.241963727748749 pbc="F F F"
Hf       0.00000000       0.00000000       0.00000000       0.00000000       0.00000000       2.03873372
Hf       0.00000000       0.00000000       2.82545455       0.00000000       0.00000000      -2.03873372
2
Properties=species:S:1:pos:R:3:forces:R:3 energy=-9.12271523688995 pbc="F F F"
Hf       0.00000000       0.00000000       0.00000000       0.00000000       0.00000000       2.01123214
Hf       0.00000000       0.00000000       2.88424242       0.00000000       0.00000000      -2.01123214
2
Properties=species:S:1:pos:R:3:forces:R:3 energy=-9.006153162108644 pbc="F F F"
Hf       0.00000000       0.00000000       0.00000000       0.00000000       0.00000000       1.95032418
Hf       0.00000000       0.00000000       2.94303030       0.00000000       0.00000000      -1.95032418
2
Properties=species:S:1:pos:R:3:forces:R:3 energy=-8.893670416113832 pbc="F F F"
Hf       0.00000000       0.00000000       0.00000000       0.00000000       0.00000000       1.87536585
Hf       0.00000000       0.00000000       3.00181818       0.00000000       0.00000000      -1.87536585
2
Properties=species:S:1:pos:R:3:forces:R:3 energy=-8.785773568486299 pbc="F F F"
Hf       0.00000000       0.00000000       0.00000000       0.00000000       0.00000000       1.79342520
Hf       0.00000000       0.00000000       3.06060606       0.00000000       0.00000000      -1.79342520
2
Properties=species:S:1:pos:R:3:forces:R:3 energy=-8.683226698949268 pbc="F F F"
Hf       0.00000000       0.00000000       0.00000000       0.00000000       0.00000000       1.69055450
Hf       0.00000000       0.00000000       3.11939394       0.00000000       0.00000000      -1.69055450
2
Properties=species:S:1:pos:R:3:forces:R:3 energy=-8.587542374871447 pbc="F F F"
Hf       0.00000000       0.00000000       0.00000000       0.00000000       0.00000000       1.56128740
Hf       0.00000000       0.00000000       3.17818182       0.00000000       0.00000000      -1.56128740
2
Properties=species:S:1:pos:R:3:forces:R:3 energy=-8.499811433346784 pbc="F F F"
Hf       0.00000000       0.00000000       0.00000000       0.00000000       0.00000000       1.42416668
Hf       0.00000000       0.00000000       3.23696970       0.00000000       0.00000000      -1.42416668
2
Properties=species:S:1:pos:R:3:forces:R:3 energy=-8.419775216612104 pbc="F F F"
Hf       0.00000000       0.00000000       0.00000000       0.00000000       0.00000000       1.30280137
Hf       0.00000000       0.00000000       3.29575758       0.00000000       0.00000000      -1.30280137
2
Properties=species:S:1:pos:R:3:forces:R:3 energy=-8.346111056324968 pbc="F F F"
Hf       0.00000000       0.00000000       0.00000000       0.00000000       0.00000000       1.20758247
Hf       0.00000000       0.00000000       3.35454545       0.00000000       0.00000000      -1.20758247
2
Properties=species:S:1:pos:R:3:forces:R:3 energy=-8.277359739293713 pbc="F F F"
Hf       0.00000000       0.00000000       0.00000000       0.00000000       0.00000000       1.13440359
Hf       0.00000000       0.00000000       3.41333333       0.00000000       0.00000000      -1.13440359
2
Properties=species:S:1:pos:R:3:forces:R:3 energy=-8.212426445949248 pbc="F F F"
Hf       0.00000000       0.00000000       0.00000000       0.00000000       0.00000000       1.07715511
Hf       0.00000000       0.00000000       3.47212121       0.00000000       0.00000000      -1.07715511
2
Properties=species:S:1:pos:R:3:forces:R:3 energy=-8.150409663304256 pbc="F F F"
Hf       0.00000000       0.00000000       0.00000000       0.00000000       0.00000000       1.03536642
Hf       0.00000000       0.00000000       3.53090909       0.00000000       0.00000000      -1.03536642
2
Properties=species:S:1:pos:R:3:forces:R:3 energy=-8.090361248668795 pbc="F F F"
Hf       0.00000000       0.00000000       0.00000000       0.00000000       0.00000000       1.01032507
Hf       0.00000000       0.00000000       3.58969697       0.00000000       0.00000000      -1.01032507
2
Properties=species:S:1:pos:R:3:forces:R:3 energy=-8.031326264520294 pbc="F F F"
Hf       0.00000000       0.00000000       0.00000000       0.00000000       0.00000000       1.00032556
Hf       0.00000000       0.00000000       3.64848485       0.00000000       0.00000000      -1.00032556
2
Properties=species:S:1:pos:R:3:forces:R:3 energy=-7.9725436884899 pbc="F F F"
Hf       0.00000000       0.00000000       0.00000000       0.00000000       0.00000000       1.00071025
Hf       0.00000000       0.00000000       3.70727273       0.00000000       0.00000000      -1.00071025
2
Properties=species:S:1:pos:R:3:forces:R:3 energy=-7.913572342983105 pbc="F F F"
Hf       0.00000000       0.00000000       0.00000000       0.00000000       0.00000000       1.00585794
Hf       0.00000000       0.00000000       3.76606061       0.00000000       0.00000000      -1.00585794
2
Properties=species:S:1:pos:R:3:forces:R:3 energy=-7.85429238085916 pbc="F F F"
Hf       0.00000000       0.00000000       0.00000000       0.00000000       0.00000000       1.01038110
Hf       0.00000000       0.00000000       3.82484848       0.00000000       0.00000000      -1.01038110
2
Properties=species:S:1:pos:R:3:forces:R:3 energy=-7.7948785872873545 pbc="F F F"
Hf       0.00000000       0.00000000       0.00000000       0.00000000       0.00000000       1.00959718
Hf       0.00000000       0.00000000       3.88363636       0.00000000       0.00000000      -1.00959718
2
Properties=species:S:1:pos:R:3:forces:R:3 energy=-7.735759418789198 pbc="F F F"
Hf       0.00000000       0.00000000       0.00000000       0.00000000       0.00000000       1.00000834
Hf       0.00000000       0.00000000       3.94242424       0.00000000       0.00000000      -1.00000834
2
Properties=species:S:1:pos:R:3:forces:R:3 energy=-7.677511477850775 pbc="F F F"
Hf       0.00000000       0.00000000       0.00000000       0.00000000       0.00000000       0.97987092
Hf       0.00000000       0.00000000       4.00121212       0.00000000       0.00000000      -0.97987092
2
Properties=species:S:1:pos:R:3:forces:R:3 energy=-7.620757111647136 pbc="F F F"
Hf       0.00000000       0.00000000       0.00000000       0.00000000       0.00000000       0.94942433
Hf       0.00000000       0.00000000       4.06000000       0.00000000       0.00000000      -0.94942433
2
Properties=species:S:1:pos:R:3:forces:R:3 energy=-7.56604808278263 pbc="F F F"
Hf       0.00000000       0.00000000       0.00000000       0.00000000       0.00000000       0.91053188
Hf       0.00000000       0.00000000       4.11878788       0.00000000       0.00000000      -0.91053188
2
Properties=species:S:1:pos:R:3:forces:R:3 energy=-7.513814305296653 pbc="F F F"
Hf       0.00000000       0.00000000       0.00000000       0.00000000       0.00000000       0.86575800
Hf       0.00000000       0.00000000       4.17757576       0.00000000       0.00000000      -0.86575800
2
Properties=species:S:1:pos:R:3:forces:R:3 energy=-7.464323600273037 pbc="F F F"
Hf       0.00000000       0.00000000       0.00000000       0.00000000       0.00000000       0.81746089
Hf       0.00000000       0.00000000       4.23636364       0.00000000       0.00000000      -0.81746089
2
Properties=species:S:1:pos:R:3:forces:R:3 energy=-7.417737211691012 pbc="F F F"
Hf       0.00000000       0.00000000       0.00000000       0.00000000       0.00000000       0.76726079
Hf       0.00000000       0.00000000       4.29515152       0.00000000       0.00000000      -0.76726079
2
Properties=species:S:1:pos:R:3:forces:R:3 energy=-7.374134665313884 pbc="F F F"
Hf       0.00000000       0.00000000       0.00000000       0.00000000       0.00000000       0.71603775
Hf       0.00000000       0.00000000       4.35393939       0.00000000       0.00000000      -0.71603775
2
Properties=species:S:1:pos:R:3:forces:R:3 energy=-7.333561344698891 pbc="F F F"
Hf       0.00000000       0.00000000       0.00000000       0.00000000       0.00000000       0.66421038
Hf       0.00000000       0.00000000       4.41272727       0.00000000       0.00000000      -0.66421038
2
Properties=species:S:1:pos:R:3:forces:R:3 energy=-7.296045822061662 pbc="F F F"
Hf       0.00000000       0.00000000       0.00000000       0.00000000       0.00000000       0.61208087
Hf       0.00000000       0.00000000       4.47151515       0.00000000       0.00000000      -0.61208087
2
Properties=species:S:1:pos:R:3:forces:R:3 energy=-7.261594060202577 pbc="F F F"
Hf       0.00000000       0.00000000       0.00000000       0.00000000       0.00000000       0.56003630
Hf       0.00000000       0.00000000       4.53030303       0.00000000       0.00000000      -0.56003630
2
Properties=species:S:1:pos:R:3:forces:R:3 energy=-7.230185743529327 pbc="F F F"
Hf       0.00000000       0.00000000       0.00000000       0.00000000       0.00000000       0.50862086
Hf       0.00000000       0.00000000       4.58909091       0.00000000       0.00000000      -0.50862086
2
Properties=species:S:1:pos:R:3:forces:R:3 energy=-7.2017626122175615 pbc="F F F"
Hf       0.00000000       0.00000000       0.00000000       0.00000000       0.00000000       0.45856041
Hf       0.00000000       0.00000000       4.64787879       0.00000000       0.00000000      -0.45856041
2
Properties=species:S:1:pos:R:3:forces:R:3 energy=-7.176226973014787 pbc="F F F"
Hf       0.00000000       0.00000000       0.00000000       0.00000000       0.00000000       0.41069484
Hf       0.00000000       0.00000000       4.70666667       0.00000000       0.00000000      -0.41069484
2
Properties=species:S:1:pos:R:3:forces:R:3 energy=-7.15341640319223 pbc="F F F"
Hf       0.00000000       0.00000000       0.00000000       0.00000000       0.00000000       0.36593631
Hf       0.00000000       0.00000000       4.76545455       0.00000000       0.00000000      -0.36593631
2
Properties=species:S:1:pos:R:3:forces:R:3 energy=-7.1331214520444854 pbc="F F F"
Hf       0.00000000       0.00000000       0.00000000       0.00000000       0.00000000       0.32517621
Hf       0.00000000       0.00000000       4.82424242       0.00000000       0.00000000      -0.32517621
2
Properties=species:S:1:pos:R:3:forces:R:3 energy=-7.115090865587333 pbc="F F F"
Hf       0.00000000       0.00000000       0.00000000       0.00000000       0.00000000       0.28920317
Hf       0.00000000       0.00000000       4.88303030       0.00000000       0.00000000      -0.28920317
2
Properties=species:S:1:pos:R:3:forces:R:3 energy=-7.0990166350474215 pbc="F F F"
Hf       0.00000000       0.00000000       0.00000000       0.00000000       0.00000000       0.25853035
Hf       0.00000000       0.00000000       4.94181818       0.00000000       0.00000000      -0.25853035
2
Properties=species:S:1:pos:R:3:forces:R:3 energy=-7.084585321045141 pbc="F F F"
Hf       0.00000000       0.00000000       0.00000000       0.00000000       0.00000000       0.23330833
Hf       0.00000000       0.00000000       5.00060606       0.00000000       0.00000000      -0.23330833
2
Properties=species:S:1:pos:R:3:forces:R:3 energy=-7.07148196015873 pbc="F F F"
Hf       0.00000000       0.00000000       0.00000000       0.00000000       0.00000000       0.21320269
Hf       0.00000000       0.00000000       5.05939394       0.00000000       0.00000000      -0.21320269
2
Properties=species:S:1:pos:R:3:forces:R:3 energy=-7.05943183335704 pbc="F F F"
Hf       0.00000000       0.00000000       0.00000000       0.00000000       0.00000000       0.19737679
Hf       0.00000000       0.00000000       5.11818182       0.00000000       0.00000000      -0.19737679
2
Properties=species:S:1:pos:R:3:forces:R:3 energy=-7.048215756466831 pbc="F F F"
Hf       0.00000000       0.00000000       0.00000000       0.00000000       0.00000000       0.18457296
Hf       0.00000000       0.00000000       5.17696970       0.00000000       0.00000000      -0.18457296
2
Properties=species:S:1:pos:R:3:forces:R:3 energy=-7.037702495596052 pbc="F F F"
Hf       0.00000000       0.00000000       0.00000000       0.00000000       0.00000000       0.17331727
Hf       0.00000000       0.00000000       5.23575758       0.00000000       0.00000000      -0.17331727
2
Properties=species:S:1:pos:R:3:forces:R:3 energy=-7.027842870857728 pbc="F F F"
Hf       0.00000000       0.00000000       0.00000000       0.00000000       0.00000000       0.16212738
Hf       0.00000000       0.00000000       5.29454545       0.00000000       0.00000000      -0.16212738
2
Properties=species:S:1:pos:R:3:forces:R:3 energy=-7.01866221250663 pbc="F F F"
Hf       0.00000000       0.00000000       0.00000000       0.00000000       0.00000000       0.14980716
Hf       0.00000000       0.00000000       5.35333333       0.00000000       0.00000000      -0.14980716
2
Properties=species:S:1:pos:R:3:forces:R:3 energy=-7.010262116232441 pbc="F F F"
Hf       0.00000000       0.00000000       0.00000000       0.00000000       0.00000000       0.13563301
Hf       0.00000000       0.00000000       5.41212121       0.00000000       0.00000000      -0.13563301
2
Properties=species:S:1:pos:R:3:forces:R:3 energy=-7.002755539453267 pbc="F F F"
Hf       0.00000000       0.00000000       0.00000000       0.00000000       0.00000000       0.11947106
Hf       0.00000000       0.00000000       5.47090909       0.00000000       0.00000000      -0.11947106
2
Properties=species:S:1:pos:R:3:forces:R:3 energy=-6.996245788802448 pbc="F F F"
Hf       0.00000000       0.00000000       0.00000000       0.00000000       0.00000000       0.10178316
Hf       0.00000000       0.00000000       5.52969697       0.00000000       0.00000000      -0.10178316
2
Properties=species:S:1:pos:R:3:forces:R:3 energy=-6.990799801408598 pbc="F F F"
Hf       0.00000000       0.00000000       0.00000000       0.00000000       0.00000000       0.08350354
Hf       0.00000000       0.00000000       5.58848485       0.00000000       0.00000000      -0.08350354
2
Properties=species:S:1:pos:R:3:forces:R:3 energy=-6.9864155900881295 pbc="F F F"
Hf       0.00000000       0.00000000       0.00000000       0.00000000       0.00000000       0.06587239
Hf       0.00000000       0.00000000       5.64727273       0.00000000       0.00000000      -0.06587239
2
Properties=species:S:1:pos:R:3:forces:R:3 energy=-6.9830165434741165 pbc="F F F"
Hf       0.00000000       0.00000000       0.00000000       0.00000000       0.00000000       0.05015175
Hf       0.00000000       0.00000000       5.70606061       0.00000000       0.00000000      -0.05015175
2
Properties=species:S:1:pos:R:3:forces:R:3 energy=-6.980459042739533 pbc="F F F"
Hf       0.00000000       0.00000000       0.00000000       0.00000000       0.00000000       0.03740806
Hf       0.00000000       0.00000000       5.76484848       0.00000000       0.00000000      -0.03740806
2
Properties=species:S:1:pos:R:3:forces:R:3 energy=-6.978543835996967 pbc="F F F"
Hf       0.00000000       0.00000000       0.00000000       0.00000000       0.00000000       0.02828488
Hf       0.00000000       0.00000000       5.82363636       0.00000000       0.00000000      -0.02828488
2
Properties=species:S:1:pos:R:3:forces:R:3 energy=-6.977061792491048 pbc="F F F"
Hf       0.00000000       0.00000000       0.00000000       0.00000000       0.00000000       0.02278805
Hf       0.00000000       0.00000000       5.88242424       0.00000000       0.00000000      -0.02278805
2
Properties=species:S:1:pos:R:3:forces:R:3 energy=-6.975809218408312 pbc="F F F"
Hf       0.00000000       0.00000000       0.00000000       0.00000000       0.00000000       0.02024804
Hf       0.00000000       0.00000000       5.94121212       0.00000000       0.00000000      -0.02024804
2
Properties=species:S:1:pos:R:3:forces:R:3 energy=-6.974648812837896 pbc="F F F"
Hf       0.00000000       0.00000000       0.00000000       0.00000000       0.00000000       0.01939954
Hf       0.00000000       0.00000000       6.00000000       0.00000000       0.00000000      -0.01939954
