2
Properties=species:S:1:pos:R:3:forces:R:3 energy=37114.49045172626 pbc="F F F"
Hg       0.00000000       0.00000000       0.00000000       0.00000000       0.00000000 -348599.87500000
Hg       0.00000000       0.00000000       0.18000000       0.00000000       0.00000000  348599.87500000
2
Properties=species:S:1:pos:R:3:forces:R:3 energy=19500.779514226262 pbc="F F F"
Hg       0.00000000       0.00000000       0.00000000       0.00000000       0.00000000 -244022.62500000
Hg       0.00000000       0.00000000       0.23878788       0.00000000       0.00000000  244022.62500000
2
Properties=species:S:1:pos:R:3:forces:R:3 energy=8489.489475163762 pbc="F F F"
Hg       0.00000000       0.00000000       0.00000000       0.00000000       0.00000000 -134502.43750000
Hg       0.00000000       0.00000000       0.29757576       0.00000000       0.00000000  134502.43750000
2
Properties=species:S:1:pos:R:3:forces:R:3 energy=2972.094211498223 pbc="F F F"
Hg       0.00000000       0.00000000       0.00000000       0.00000000       0.00000000  -60191.12500000
Hg       0.00000000       0.00000000       0.35636364       0.00000000       0.00000000   60191.12500000
2
Properties=species:S:1:pos:R:3:forces:R:3 energy=727.895236892016 pbc="F F F"
Hg       0.00000000       0.00000000       0.00000000       0.00000000       0.00000000  -20890.33984375
Hg       0.00000000       0.00000000       0.41515152       0.00000000       0.00000000   20890.33984375
2
Properties=species:S:1:pos:R:3:forces:R:3 energy=68.18494027382785 pbc="F F F"
Hg       0.00000000       0.00000000       0.00000000       0.00000000       0.00000000   -4545.82226562
Hg       0.00000000       0.00000000       0.47393939       0.00000000       0.00000000    4545.82226562
2
Properties=species:S:1:pos:R:3:forces:R:3 energy=2.89087005216716 pbc="F F F"
Hg       0.00000000       0.00000000       0.00000000       0.00000000       0.00000000     -45.07396317
Hg       0.00000000       0.00000000       0.53272727       0.00000000       0.00000000      45.07396317
2
Properties=species:S:1:pos:R:3:forces:R:3 energy=4.198783876729072 pbc="F F F"
Hg       0.00000000       0.00000000       0.00000000       0.00000000       0.00000000     398.50006104
Hg       0.00000000       0.00000000       0.59151515       0.00000000       0.00000000    -398.50006104
2
Properties=species:S:1:pos:R:3:forces:R:3 energy=45.73277289905788 pbc="F F F"
Hg       0.00000000       0.00000000       0.00000000       0.00000000       0.00000000    2405.56176758
Hg       0.00000000       0.00000000       0.65030303       0.00000000       0.00000000   -2405.56176758
2
Properties=species:S:1:pos:R:3:forces:R:3 energy=218.00770968278923 pbc="F F F"
Hg       0.00000000       0.00000000       0.00000000       0.00000000       0.00000000     687.35815430
Hg       0.00000000       0.00000000       0.70909091       0.00000000       0.00000000    -687.35815430
2
Properties=species:S:1:pos:R:3:forces:R:3 energy=211.93947254282847 pbc="F F F"
Hg       0.00000000       0.00000000       0.00000000       0.00000000       0.00000000    -263.01055908
Hg       0.00000000       0.00000000       0.76787879       0.00000000       0.00000000     263.01055908
2
Properties=species:S:1:pos:R:3:forces:R:3 energy=205.4663129967117 pbc="F F F"
Hg       0.00000000       0.00000000       0.00000000       0.00000000       0.00000000      46.67196274
Hg       0.00000000       0.00000000       0.82666667       0.00000000       0.00000000     -46.67196274
2
Properties=species:S:1:pos:R:3:forces:R:3 energy=193.5473222594728 pbc="F F F"
Hg       0.00000000       0.00000000       0.00000000       0.00000000       0.00000000    -254.82699585
Hg       0.00000000       0.00000000       0.88545455       0.00000000       0.00000000     254.82699585
2
Properties=species:S:1:pos:R:3:forces:R:3 energy=171.2939047785674 pbc="F F F"
Hg       0.00000000       0.00000000       0.00000000       0.00000000       0.00000000    -587.23529053
Hg       0.00000000       0.00000000       0.94424242       0.00000000       0.00000000     587.23529053
2
Properties=species:S:1:pos:R:3:forces:R:3 energy=137.92284222405945 pbc="F F F"
Hg       0.00000000       0.00000000       0.00000000       0.00000000       0.00000000    -489.08209229
Hg       0.00000000       0.00000000       1.00303030       0.00000000       0.00000000     489.08209229
2
Properties=species:S:1:pos:R:3:forces:R:3 energy=115.4248420345916 pbc="F F F"
Hg       0.00000000       0.00000000       0.00000000       0.00000000       0.00000000    -316.27935791
Hg       0.00000000       0.00000000       1.06181818       0.00000000       0.00000000     316.27935791
2
Properties=species:S:1:pos:R:3:forces:R:3 energy=99.24561350520372 pbc="F F F"
Hg       0.00000000       0.00000000       0.00000000       0.00000000       0.00000000    -258.39614868
Hg       0.00000000       0.00000000       1.12060606       0.00000000       0.00000000     258.39614868
2
Properties=species:S:1:pos:R:3:forces:R:3 energy=84.43591507373993 pbc="F F F"
Hg       0.00000000       0.00000000       0.00000000       0.00000000       0.00000000    -243.06867981
Hg       0.00000000       0.00000000       1.17939394       0.00000000       0.00000000     243.06867981
2
Properties=species:S:1:pos:R:3:forces:R:3 energy=73.2252771697076 pbc="F F F"
Hg       0.00000000       0.00000000       0.00000000       0.00000000       0.00000000    -158.30580139
Hg       0.00000000       0.00000000       1.23818182       0.00000000       0.00000000     158.30580139
2
Properties=species:S:1:pos:R:3:forces:R:3 energy=64.10545251582087 pbc="F F F"
Hg       0.00000000       0.00000000       0.00000000       0.00000000       0.00000000    -151.94300842
Hg       0.00000000       0.00000000       1.29696970       0.00000000       0.00000000     151.94300842
2
Properties=species:S:1:pos:R:3:forces:R:3 energy=55.62067265041977 pbc="F F F"
Hg       0.00000000       0.00000000       0.00000000       0.00000000       0.00000000    -139.88240051
Hg       0.00000000       0.00000000       1.35575758       0.00000000       0.00000000     139.88240051
2
Properties=species:S:1:pos:R:3:forces:R:3 energy=47.517344280735536 pbc="F F F"
Hg       0.00000000       0.00000000       0.00000000       0.00000000       0.00000000    -134.03945923
Hg       0.00000000       0.00000000       1.41454545       0.00000000       0.00000000     134.03945923
2
Properties=species:S:1:pos:R:3:forces:R:3 energy=40.03162402878232 pbc="F F F"
Hg       0.00000000       0.00000000       0.00000000       0.00000000       0.00000000    -119.16323090
Hg       0.00000000       0.00000000       1.47333333       0.00000000       0.00000000     119.16323090
2
Properties=species:S:1:pos:R:3:forces:R:3 energy=33.35087094399844 pbc="F F F"
Hg       0.00000000       0.00000000       0.00000000       0.00000000       0.00000000    -108.32754517
Hg       0.00000000       0.00000000       1.53212121       0.00000000       0.00000000     108.32754517
2
Properties=species:S:1:pos:R:3:forces:R:3 energy=27.433037747521098 pbc="F F F"
Hg       0.00000000       0.00000000       0.00000000       0.00000000       0.00000000     -93.91275787
Hg       0.00000000       0.00000000       1.59090909       0.00000000       0.00000000      93.91275787
2
Properties=species:S:1:pos:R:3:forces:R:3 energy=22.195217972921434 pbc="F F F"
Hg       0.00000000       0.00000000       0.00000000       0.00000000       0.00000000     -83.33872986
Hg       0.00000000       0.00000000       1.64969697       0.00000000       0.00000000      83.33872986
2
Properties=species:S:1:pos:R:3:forces:R:3 energy=17.65645295720133 pbc="F F F"
Hg       0.00000000       0.00000000       0.00000000       0.00000000       0.00000000     -70.64192200
Hg       0.00000000       0.00000000       1.70848485       0.00000000       0.00000000      70.64192200
2
Properties=species:S:1:pos:R:3:forces:R:3 energy=13.952122808402779 pbc="F F F"
Hg       0.00000000       0.00000000       0.00000000       0.00000000       0.00000000     -55.95021820
Hg       0.00000000       0.00000000       1.76727273       0.00000000       0.00000000      55.95021820
2
Properties=species:S:1:pos:R:3:forces:R:3 energy=10.964194491210133 pbc="F F F"
Hg       0.00000000       0.00000000       0.00000000       0.00000000       0.00000000     -46.26033401
Hg       0.00000000       0.00000000       1.82606061       0.00000000       0.00000000      46.26033401
2
Properties=species:S:1:pos:R:3:forces:R:3 energy=8.542587708082706 pbc="F F F"
Hg       0.00000000       0.00000000       0.00000000       0.00000000       0.00000000     -35.98304749
Hg       0.00000000       0.00000000       1.88484848       0.00000000       0.00000000      35.98304749
2
Properties=species:S:1:pos:R:3:forces:R:3 energy=6.700773558570483 pbc="F F F"
Hg       0.00000000       0.00000000       0.00000000       0.00000000       0.00000000     -27.20520973
Hg       0.00000000       0.00000000       1.94363636       0.00000000       0.00000000      27.20520973
2
Properties=species:S:1:pos:R:3:forces:R:3 energy=5.296481946478182 pbc="F F F"
Hg       0.00000000       0.00000000       0.00000000       0.00000000       0.00000000     -20.89871025
Hg       0.00000000       0.00000000       2.00242424       0.00000000       0.00000000      20.89871025
2
Properties=species:S:1:pos:R:3:forces:R:3 energy=4.205513994581613 pbc="F F F"
Hg       0.00000000       0.00000000       0.00000000       0.00000000       0.00000000     -16.49764824
Hg       0.00000000       0.00000000       2.06121212       0.00000000       0.00000000      16.49764824
2
Properties=species:S:1:pos:R:3:forces:R:3 energy=3.337267808645799 pbc="F F F"
Hg       0.00000000       0.00000000       0.00000000       0.00000000       0.00000000     -13.17698479
Hg       0.00000000       0.00000000       2.12000000       0.00000000       0.00000000      13.17698479
2
Properties=species:S:1:pos:R:3:forces:R:3 energy=2.6377792711506505 pbc="F F F"
Hg       0.00000000       0.00000000       0.00000000       0.00000000       0.00000000     -10.73317242
Hg       0.00000000       0.00000000       2.17878788       0.00000000       0.00000000      10.73317242
2
Properties=species:S:1:pos:R:3:forces:R:3 energy=2.069171212076428 pbc="F F F"
Hg       0.00000000       0.00000000       0.00000000       0.00000000       0.00000000      -8.65221024
Hg       0.00000000       0.00000000       2.23757576       0.00000000       0.00000000       8.65221024
2
Properties=species:S:1:pos:R:3:forces:R:3 energy=1.6129994849486695 pbc="F F F"
Hg       0.00000000       0.00000000       0.00000000       0.00000000       0.00000000      -6.93313026
Hg       0.00000000       0.00000000       2.29636364       0.00000000       0.00000000       6.93313026
2
Properties=species:S:1:pos:R:3:forces:R:3 energy=1.248466670385725 pbc="F F F"
Hg       0.00000000       0.00000000       0.00000000       0.00000000       0.00000000      -5.50721979
Hg       0.00000000       0.00000000       2.35515152       0.00000000       0.00000000       5.50721979
2
Properties=species:S:1:pos:R:3:forces:R:3 energy=0.9596786297376919 pbc="F F F"
Hg       0.00000000       0.00000000       0.00000000       0.00000000       0.00000000      -4.37006187
Hg       0.00000000       0.00000000       2.41393939       0.00000000       0.00000000       4.37006187
2
Properties=species:S:1:pos:R:3:forces:R:3 energy=0.7297747216962787 pbc="F F F"
Hg       0.00000000       0.00000000       0.00000000       0.00000000       0.00000000      -3.48247957
Hg       0.00000000       0.00000000       2.47272727       0.00000000       0.00000000       3.48247957
2
Properties=species:S:1:pos:R:3:forces:R:3 energy=0.5474124239307953 pbc="F F F"
Hg       0.00000000       0.00000000       0.00000000       0.00000000       0.00000000      -2.74012280
Hg       0.00000000       0.00000000       2.53151515       0.00000000       0.00000000       2.74012280
2
Properties=species:S:1:pos:R:3:forces:R:3 energy=0.40560141463118266 pbc="F F F"
Hg       0.00000000       0.00000000       0.00000000       0.00000000       0.00000000      -2.10203910
Hg       0.00000000       0.00000000       2.59030303       0.00000000       0.00000000       2.10203910
2
Properties=species:S:1:pos:R:3:forces:R:3 energy=0.29800168444812897 pbc="F F F"
Hg       0.00000000       0.00000000       0.00000000       0.00000000       0.00000000      -1.57863581
Hg       0.00000000       0.00000000       2.64909091       0.00000000       0.00000000       1.57863581
2
Properties=species:S:1:pos:R:3:forces:R:3 energy=0.21780062924691948 pbc="F F F"
Hg       0.00000000       0.00000000       0.00000000       0.00000000       0.00000000      -1.16584349
Hg       0.00000000       0.00000000       2.70787879       0.00000000       0.00000000       1.16584349
2
Properties=species:S:1:pos:R:3:forces:R:3 energy=0.15930448569933306 pbc="F F F"
Hg       0.00000000       0.00000000       0.00000000       0.00000000       0.00000000      -0.83717710
Hg       0.00000000       0.00000000       2.76666667       0.00000000       0.00000000       0.83717710
2
Properties=species:S:1:pos:R:3:forces:R:3 energy=0.11781339502844246 pbc="F F F"
Hg       0.00000000       0.00000000       0.00000000       0.00000000       0.00000000      -0.58758515
Hg       0.00000000       0.00000000       2.82545455       0.00000000       0.00000000       0.58758515
2
Properties=species:S:1:pos:R:3:forces:R:3 energy=0.08879565064749394 pbc="F F F"
Hg       0.00000000       0.00000000       0.00000000       0.00000000       0.00000000      -0.41007620
Hg       0.00000000       0.00000000       2.88424242       0.00000000       0.00000000       0.41007620
2
Properties=species:S:1:pos:R:3:forces:R:3 energy=0.06858667752608258 pbc="F F F"
Hg       0.00000000       0.00000000       0.00000000       0.00000000       0.00000000      -0.28434658
Hg       0.00000000       0.00000000       2.94303030       0.00000000       0.00000000       0.28434658
2
Properties=species:S:1:pos:R:3:forces:R:3 energy=0.0547100699680544 pbc="F F F"
Hg       0.00000000       0.00000000       0.00000000       0.00000000       0.00000000      -0.19217879
Hg       0.00000000       0.00000000       3.00181818       0.00000000       0.00000000       0.19217879
2
Properties=species:S:1:pos:R:3:forces:R:3 energy=0.04556460499243499 pbc="F F F"
Hg       0.00000000       0.00000000       0.00000000       0.00000000       0.00000000      -0.12191839
Hg       0.00000000       0.00000000       3.06060606       0.00000000       0.00000000       0.12191839
2
Properties=species:S:1:pos:R:3:forces:R:3 energy=0.040085172773961134 pbc="F F F"
Hg       0.00000000       0.00000000       0.00000000       0.00000000       0.00000000      -0.06659502
Hg       0.00000000       0.00000000       3.11939394       0.00000000       0.00000000       0.06659502
2
Properties=species:S:1:pos:R:3:forces:R:3 energy=0.03751703689176318 pbc="F F F"
Hg       0.00000000       0.00000000       0.00000000       0.00000000       0.00000000      -0.02244573
Hg       0.00000000       0.00000000       3.17818182       0.00000000       0.00000000       0.02244573
2
Properties=species:S:1:pos:R:3:forces:R:3 energy=0.03726387578758998 pbc="F F F"
Hg       0.00000000       0.00000000       0.00000000       0.00000000       0.00000000       0.01239094
Hg       0.00000000       0.00000000       3.23696970       0.00000000       0.00000000      -0.01239094
2
Properties=species:S:1:pos:R:3:forces:R:3 energy=0.038815745567227215 pbc="F F F"
Hg       0.00000000       0.00000000       0.00000000       0.00000000       0.00000000       0.03914730
Hg       0.00000000       0.00000000       3.29575758       0.00000000       0.00000000      -0.03914730
2
Properties=species:S:1:pos:R:3:forces:R:3 energy=0.04173069747801401 pbc="F F F"
Hg       0.00000000       0.00000000       0.00000000       0.00000000       0.00000000       0.05896816
Hg       0.00000000       0.00000000       3.35454545       0.00000000       0.00000000      -0.05896816
2
Properties=species:S:1:pos:R:3:forces:R:3 energy=0.04563872362908679 pbc="F F F"
Hg       0.00000000       0.00000000       0.00000000       0.00000000       0.00000000       0.07318515
Hg       0.00000000       0.00000000       3.41333333       0.00000000       0.00000000      -0.07318515
2
Properties=species:S:1:pos:R:3:forces:R:3 energy=0.0502583650836516 pbc="F F F"
Hg       0.00000000       0.00000000       0.00000000       0.00000000       0.00000000       0.08347487
Hg       0.00000000       0.00000000       3.47212121       0.00000000       0.00000000      -0.08347487
2
Properties=species:S:1:pos:R:3:forces:R:3 energy=0.055410020525647634 pbc="F F F"
Hg       0.00000000       0.00000000       0.00000000       0.00000000       0.00000000       0.09152976
Hg       0.00000000       0.00000000       3.53090909       0.00000000       0.00000000      -0.09152976
2
Properties=species:S:1:pos:R:3:forces:R:3 energy=0.060997334466289535 pbc="F F F"
Hg       0.00000000       0.00000000       0.00000000       0.00000000       0.00000000       0.09839264
Hg       0.00000000       0.00000000       3.58969697       0.00000000       0.00000000      -0.09839264
2
Properties=species:S:1:pos:R:3:forces:R:3 energy=0.06695759655538708 pbc="F F F"
Hg       0.00000000       0.00000000       0.00000000       0.00000000       0.00000000       0.10416345
Hg       0.00000000       0.00000000       3.64848485       0.00000000       0.00000000      -0.10416345
2
Properties=species:S:1:pos:R:3:forces:R:3 energy=0.07321330482752939 pbc="F F F"
Hg       0.00000000       0.00000000       0.00000000       0.00000000       0.00000000       0.10834992
Hg       0.00000000       0.00000000       3.70727273       0.00000000       0.00000000      -0.10834992
2
Properties=species:S:1:pos:R:3:forces:R:3 energy=0.0796559698216428 pbc="F F F"
Hg       0.00000000       0.00000000       0.00000000       0.00000000       0.00000000       0.11046436
Hg       0.00000000       0.00000000       3.76606061       0.00000000       0.00000000      -0.11046436
2
Properties=species:S:1:pos:R:3:forces:R:3 energy=0.08615805993251283 pbc="F F F"
Hg       0.00000000       0.00000000       0.00000000       0.00000000       0.00000000       0.11038245
Hg       0.00000000       0.00000000       3.82484848       0.00000000       0.00000000      -0.11038245
2
Properties=species:S:1:pos:R:3:forces:R:3 energy=0.09259562841706796 pbc="F F F"
Hg       0.00000000       0.00000000       0.00000000       0.00000000       0.00000000       0.10832507
Hg       0.00000000       0.00000000       3.88363636       0.00000000       0.00000000      -0.10832507
2
Properties=species:S:1:pos:R:3:forces:R:3 energy=0.09886266802632787 pbc="F F F"
Hg       0.00000000       0.00000000       0.00000000       0.00000000       0.00000000       0.10464609
Hg       0.00000000       0.00000000       3.94242424       0.00000000       0.00000000      -0.10464609
2
Properties=species:S:1:pos:R:3:forces:R:3 energy=0.1048741007411087 pbc="F F F"
Hg       0.00000000       0.00000000       0.00000000       0.00000000       0.00000000       0.09967636
Hg       0.00000000       0.00000000       4.00121212       0.00000000       0.00000000      -0.09967636
2
Properties=species:S:1:pos:R:3:forces:R:3 energy=0.11056290724560744 pbc="F F F"
Hg       0.00000000       0.00000000       0.00000000       0.00000000       0.00000000       0.09372336
Hg       0.00000000       0.00000000       4.06000000       0.00000000       0.00000000      -0.09372336
2
Properties=species:S:1:pos:R:3:forces:R:3 energy=0.11588118138805097 pbc="F F F"
Hg       0.00000000       0.00000000       0.00000000       0.00000000       0.00000000       0.08712769
Hg       0.00000000       0.00000000       4.11878788       0.00000000       0.00000000      -0.08712769
2
Properties=species:S:1:pos:R:3:forces:R:3 energy=0.12080175534521573 pbc="F F F"
Hg       0.00000000       0.00000000       0.00000000       0.00000000       0.00000000       0.08025838
Hg       0.00000000       0.00000000       4.17757576       0.00000000       0.00000000      -0.08025838
2
Properties=species:S:1:pos:R:3:forces:R:3 energy=0.1253187683264283 pbc="F F F"
Hg       0.00000000       0.00000000       0.00000000       0.00000000       0.00000000       0.07344659
Hg       0.00000000       0.00000000       4.23636364       0.00000000       0.00000000      -0.07344659
2
Properties=species:S:1:pos:R:3:forces:R:3 energy=0.1294431746344281 pbc="F F F"
Hg       0.00000000       0.00000000       0.00000000       0.00000000       0.00000000       0.06693459
Hg       0.00000000       0.00000000       4.29515152       0.00000000       0.00000000      -0.06693459
2
Properties=species:S:1:pos:R:3:forces:R:3 energy=0.1331975649808924 pbc="F F F"
Hg       0.00000000       0.00000000       0.00000000       0.00000000       0.00000000       0.06087936
Hg       0.00000000       0.00000000       4.35393939       0.00000000       0.00000000      -0.06087936
2
Properties=species:S:1:pos:R:3:forces:R:3 energy=0.13661194997980902 pbc="F F F"
Hg       0.00000000       0.00000000       0.00000000       0.00000000       0.00000000       0.05538262
Hg       0.00000000       0.00000000       4.41272727       0.00000000       0.00000000      -0.05538262
2
Properties=species:S:1:pos:R:3:forces:R:3 energy=0.13972129476626133 pbc="F F F"
Hg       0.00000000       0.00000000       0.00000000       0.00000000       0.00000000       0.05050743
Hg       0.00000000       0.00000000       4.47151515       0.00000000       0.00000000      -0.05050743
2
Properties=species:S:1:pos:R:3:forces:R:3 energy=0.14256328786603562 pbc="F F F"
Hg       0.00000000       0.00000000       0.00000000       0.00000000       0.00000000       0.04627327
Hg       0.00000000       0.00000000       4.53030303       0.00000000       0.00000000      -0.04627327
2
Properties=species:S:1:pos:R:3:forces:R:3 energy=0.14517400072797085 pbc="F F F"
Hg       0.00000000       0.00000000       0.00000000       0.00000000       0.00000000       0.04264440
Hg       0.00000000       0.00000000       4.58909091       0.00000000       0.00000000      -0.04264440
2
Properties=species:S:1:pos:R:3:forces:R:3 energy=0.14758722098548868 pbc="F F F"
Hg       0.00000000       0.00000000       0.00000000       0.00000000       0.00000000       0.03953642
Hg       0.00000000       0.00000000       4.64787879       0.00000000       0.00000000      -0.03953642
2
Properties=species:S:1:pos:R:3:forces:R:3 energy=0.14983055456403402 pbc="F F F"
Hg       0.00000000       0.00000000       0.00000000       0.00000000       0.00000000       0.03683915
Hg       0.00000000       0.00000000       4.70666667       0.00000000       0.00000000      -0.03683915
2
Properties=species:S:1:pos:R:3:forces:R:3 energy=0.15192483121853823 pbc="F F F"
Hg       0.00000000       0.00000000       0.00000000       0.00000000       0.00000000       0.03445060
Hg       0.00000000       0.00000000       4.76545455       0.00000000       0.00000000      -0.03445060
2
Properties=species:S:1:pos:R:3:forces:R:3 energy=0.15388570493933776 pbc="F F F"
Hg       0.00000000       0.00000000       0.00000000       0.00000000       0.00000000       0.03230109
Hg       0.00000000       0.00000000       4.82424242       0.00000000       0.00000000      -0.03230109
2
Properties=species:S:1:pos:R:3:forces:R:3 energy=0.1557265355659673 pbc="F F F"
Hg       0.00000000       0.00000000       0.00000000       0.00000000       0.00000000       0.03035982
Hg       0.00000000       0.00000000       4.88303030       0.00000000       0.00000000      -0.03035982
2
Properties=species:S:1:pos:R:3:forces:R:3 energy=0.15745927393734094 pbc="F F F"
Hg       0.00000000       0.00000000       0.00000000       0.00000000       0.00000000       0.02861992
Hg       0.00000000       0.00000000       4.94181818       0.00000000       0.00000000      -0.02861992
2
Properties=species:S:1:pos:R:3:forces:R:3 energy=0.15909532903493567 pbc="F F F"
Hg       0.00000000       0.00000000       0.00000000       0.00000000       0.00000000       0.02707528
Hg       0.00000000       0.00000000       5.00060606       0.00000000       0.00000000      -0.02707528
2
Properties=species:S:1:pos:R:3:forces:R:3 energy=0.16064614027057295 pbc="F F F"
Hg       0.00000000       0.00000000       0.00000000       0.00000000       0.00000000       0.02569956
Hg       0.00000000       0.00000000       5.05939394       0.00000000       0.00000000      -0.02569956
2
Properties=species:S:1:pos:R:3:forces:R:3 energy=0.16211938971564122 pbc="F F F"
Hg       0.00000000       0.00000000       0.00000000       0.00000000       0.00000000       0.02443837
Hg       0.00000000       0.00000000       5.11818182       0.00000000       0.00000000      -0.02443837
2
Properties=species:S:1:pos:R:3:forces:R:3 energy=0.1635202110330375 pbc="F F F"
Hg       0.00000000       0.00000000       0.00000000       0.00000000       0.00000000       0.02321728
Hg       0.00000000       0.00000000       5.17696970       0.00000000       0.00000000      -0.02321728
2
Properties=species:S:1:pos:R:3:forces:R:3 energy=0.16484868866593258 pbc="F F F"
Hg       0.00000000       0.00000000       0.00000000       0.00000000       0.00000000       0.02196094
Hg       0.00000000       0.00000000       5.23575758       0.00000000       0.00000000      -0.02196094
2
Properties=species:S:1:pos:R:3:forces:R:3 energy=0.16610041803824038 pbc="F F F"
Hg       0.00000000       0.00000000       0.00000000       0.00000000       0.00000000       0.02061113
Hg       0.00000000       0.00000000       5.29454545       0.00000000       0.00000000      -0.02061113
2
Properties=species:S:1:pos:R:3:forces:R:3 energy=0.1672695123373483 pbc="F F F"
Hg       0.00000000       0.00000000       0.00000000       0.00000000       0.00000000       0.01914109
Hg       0.00000000       0.00000000       5.35333333       0.00000000       0.00000000      -0.01914109
2
Properties=species:S:1:pos:R:3:forces:R:3 energy=0.16834872093145126 pbc="F F F"
Hg       0.00000000       0.00000000       0.00000000       0.00000000       0.00000000       0.01755880
Hg       0.00000000       0.00000000       5.41212121       0.00000000       0.00000000      -0.01755880
2
Properties=species:S:1:pos:R:3:forces:R:3 energy=0.1693325559455478 pbc="F F F"
Hg       0.00000000       0.00000000       0.00000000       0.00000000       0.00000000       0.01590157
Hg       0.00000000       0.00000000       5.47090909       0.00000000       0.00000000      -0.01590157
2
Properties=species:S:1:pos:R:3:forces:R:3 energy=0.17021808000109026 pbc="F F F"
Hg       0.00000000       0.00000000       0.00000000       0.00000000       0.00000000       0.01422749
Hg       0.00000000       0.00000000       5.52969697       0.00000000       0.00000000      -0.01422749
2
Properties=species:S:1:pos:R:3:forces:R:3 energy=0.17100623198134898 pbc="F F F"
Hg       0.00000000       0.00000000       0.00000000       0.00000000       0.00000000       0.01260299
Hg       0.00000000       0.00000000       5.58848485       0.00000000       0.00000000      -0.01260299
2
Properties=species:S:1:pos:R:3:forces:R:3 energy=0.17170201614076858 pbc="F F F"
Hg       0.00000000       0.00000000       0.00000000       0.00000000       0.00000000       0.01109490
Hg       0.00000000       0.00000000       5.64727273       0.00000000       0.00000000      -0.01109490
2
Properties=species:S:1:pos:R:3:forces:R:3 energy=0.17231403418730024 pbc="F F F"
Hg       0.00000000       0.00000000       0.00000000       0.00000000       0.00000000       0.00975921
Hg       0.00000000       0.00000000       5.70606061       0.00000000       0.00000000      -0.00975921
2
Properties=species:S:1:pos:R:3:forces:R:3 energy=0.17285355953450854 pbc="F F F"
Hg       0.00000000       0.00000000       0.00000000       0.00000000       0.00000000       0.00863580
Hg       0.00000000       0.00000000       5.76484848       0.00000000       0.00000000      -0.00863580
2
Properties=species:S:1:pos:R:3:forces:R:3 energy=0.17333405888050218 pbc="F F F"
Hg       0.00000000       0.00000000       0.00000000       0.00000000       0.00000000       0.00774242
Hg       0.00000000       0.00000000       5.82363636       0.00000000       0.00000000      -0.00774242
2
Properties=species:S:1:pos:R:3:forces:R:3 energy=0.17376831217805194 pbc="F F F"
Hg       0.00000000       0.00000000       0.00000000       0.00000000       0.00000000       0.00706721
Hg       0.00000000       0.00000000       5.88242424       0.00000000       0.00000000      -0.00706721
2
Properties=species:S:1:pos:R:3:forces:R:3 energy=0.1741683229356354 pbc="F F F"
Hg       0.00000000       0.00000000       0.00000000       0.00000000       0.00000000       0.00656817
Hg       0.00000000       0.00000000       5.94121212       0.00000000       0.00000000      -0.00656817
2
Properties=species:S:1:pos:R:3:forces:R:3 energy=0.17454269957284452 pbc="F F F"
Hg       0.00000000       0.00000000       0.00000000       0.00000000       0.00000000       0.00617705
Hg       0.00000000       0.00000000       6.00000000       0.00000000       0.00000000      -0.00617705
