2
Properties=species:S:1:pos:R:3:forces:R:3 energy=66520.80295171993 pbc="F F F"
Hg       0.00000000       0.00000000       0.00000000       0.00000000       0.00000000 -346050.15625000
Hg       0.00000000       0.00000000       0.10000000       0.00000000       0.00000000  346050.15625000
2
Properties=species:S:1:pos:R:3:forces:R:3 energy=44465.033420469925 pbc="F F F"
Hg       0.00000000       0.00000000       0.00000000       0.00000000       0.00000000 -369935.43750000
Hg       0.00000000       0.00000000       0.15959596       0.00000000       0.00000000  369935.43750000
2
Properties=species:S:1:pos:R:3:forces:R:3 energy=24664.40256109493 pbc="F F F"
Hg       0.00000000       0.00000000       0.00000000       0.00000000       0.00000000 -282761.25000000
Hg       0.00000000       0.00000000       0.21919192       0.00000000       0.00000000  282761.25000000
2
Properties=species:S:1:pos:R:3:forces:R:3 energy=11313.310764219927 pbc="F F F"
Hg       0.00000000       0.00000000       0.00000000       0.00000000       0.00000000 -166692.45312500
Hg       0.00000000       0.00000000       0.27878788       0.00000000       0.00000000  166692.45312500
2
Properties=species:S:1:pos:R:3:forces:R:3 energy=4213.116428282427 pbc="F F F"
Hg       0.00000000       0.00000000       0.00000000       0.00000000       0.00000000  -78464.21093750
Hg       0.00000000       0.00000000       0.33838384       0.00000000       0.00000000   78464.21093750
2
Properties=species:S:1:pos:R:3:forces:R:3 energy=1157.4821509450126 pbc="F F F"
Hg       0.00000000       0.00000000       0.00000000       0.00000000       0.00000000  -29487.44140625
Hg       0.00000000       0.00000000       0.39797980       0.00000000       0.00000000   29487.44140625
2
Properties=species:S:1:pos:R:3:forces:R:3 energy=164.80211250553532 pbc="F F F"
Hg       0.00000000       0.00000000       0.00000000       0.00000000       0.00000000   -7386.25781250
Hg       0.00000000       0.00000000       0.45757576       0.00000000       0.00000000    7386.25781250
2
Properties=species:S:1:pos:R:3:forces:R:3 energy=3.687624399694846 pbc="F F F"
Hg       0.00000000       0.00000000       0.00000000       0.00000000       0.00000000     -57.06303024
Hg       0.00000000       0.00000000       0.51717172       0.00000000       0.00000000      57.06303024
2
Properties=species:S:1:pos:R:3:forces:R:3 energy=0.7288181613873007 pbc="F F F"
Hg       0.00000000       0.00000000       0.00000000       0.00000000       0.00000000      23.30846405
Hg       0.00000000       0.00000000       0.57676768       0.00000000       0.00000000     -23.30846405
2
Properties=species:S:1:pos:R:3:forces:R:3 energy=26.719835327938934 pbc="F F F"
Hg       0.00000000       0.00000000       0.00000000       0.00000000       0.00000000     765.98181152
Hg       0.00000000       0.00000000       0.63636364       0.00000000       0.00000000    -765.98181152
2
Properties=species:S:1:pos:R:3:forces:R:3 energy=203.7973824995057 pbc="F F F"
Hg       0.00000000       0.00000000       0.00000000       0.00000000       0.00000000    1517.24243164
Hg       0.00000000       0.00000000       0.69595960       0.00000000       0.00000000   -1517.24243164
2
Properties=species:S:1:pos:R:3:forces:R:3 energy=215.30254012226428 pbc="F F F"
Hg       0.00000000       0.00000000       0.00000000       0.00000000       0.00000000    -288.87109375
Hg       0.00000000       0.00000000       0.75555556       0.00000000       0.00000000     288.87109375
2
Properties=species:S:1:pos:R:3:forces:R:3 energy=203.91994147656217 pbc="F F F"
Hg       0.00000000       0.00000000       0.00000000       0.00000000       0.00000000     180.40568542
Hg       0.00000000       0.00000000       0.81515152       0.00000000       0.00000000    -180.40568542
2
Properties=species:S:1:pos:R:3:forces:R:3 energy=196.4762467408241 pbc="F F F"
Hg       0.00000000       0.00000000       0.00000000       0.00000000       0.00000000    -288.94955444
Hg       0.00000000       0.00000000       0.87474747       0.00000000       0.00000000     288.94955444
2
Properties=species:S:1:pos:R:3:forces:R:3 energy=176.86615504657584 pbc="F F F"
Hg       0.00000000       0.00000000       0.00000000       0.00000000       0.00000000    -532.25183105
Hg       0.00000000       0.00000000       0.93434343       0.00000000       0.00000000     532.25183105
2
Properties=species:S:1:pos:R:3:forces:R:3 energy=142.52190215594032 pbc="F F F"
Hg       0.00000000       0.00000000       0.00000000       0.00000000       0.00000000    -521.99267578
Hg       0.00000000       0.00000000       0.99393939       0.00000000       0.00000000     521.99267578
2
Properties=species:S:1:pos:R:3:forces:R:3 energy=118.08925533468458 pbc="F F F"
Hg       0.00000000       0.00000000       0.00000000       0.00000000       0.00000000    -326.99337769
Hg       0.00000000       0.00000000       1.05353535       0.00000000       0.00000000     326.99337769
2
Properties=species:S:1:pos:R:3:forces:R:3 energy=101.17482017595022 pbc="F F F"
Hg       0.00000000       0.00000000       0.00000000       0.00000000       0.00000000    -257.73800659
Hg       0.00000000       0.00000000       1.11313131       0.00000000       0.00000000     257.73800659
2
Properties=species:S:1:pos:R:3:forces:R:3 energy=86.07472407193306 pbc="F F F"
Hg       0.00000000       0.00000000       0.00000000       0.00000000       0.00000000    -247.63479614
Hg       0.00000000       0.00000000       1.17272727       0.00000000       0.00000000     247.63479614
2
Properties=species:S:1:pos:R:3:forces:R:3 energy=74.15733717698797 pbc="F F F"
Hg       0.00000000       0.00000000       0.00000000       0.00000000       0.00000000    -160.16465759
Hg       0.00000000       0.00000000       1.23232323       0.00000000       0.00000000     160.16465759
2
Properties=species:S:1:pos:R:3:forces:R:3 energy=64.87335081879759 pbc="F F F"
Hg       0.00000000       0.00000000       0.00000000       0.00000000       0.00000000    -152.08111572
Hg       0.00000000       0.00000000       1.29191919       0.00000000       0.00000000     152.08111572
2
Properties=species:S:1:pos:R:3:forces:R:3 energy=56.213834914608164 pbc="F F F"
Hg       0.00000000       0.00000000       0.00000000       0.00000000       0.00000000    -139.77536011
Hg       0.00000000       0.00000000       1.35151515       0.00000000       0.00000000     139.77536011
2
Properties=species:S:1:pos:R:3:forces:R:3 energy=47.978598121840236 pbc="F F F"
Hg       0.00000000       0.00000000       0.00000000       0.00000000       0.00000000    -134.56561279
Hg       0.00000000       0.00000000       1.41111111       0.00000000       0.00000000     134.56561279
2
Properties=species:S:1:pos:R:3:forces:R:3 energy=40.345508504128325 pbc="F F F"
Hg       0.00000000       0.00000000       0.00000000       0.00000000       0.00000000    -119.88166809
Hg       0.00000000       0.00000000       1.47070707       0.00000000       0.00000000     119.88166809
2
Properties=species:S:1:pos:R:3:forces:R:3 energy=33.54823171468253 pbc="F F F"
Hg       0.00000000       0.00000000       0.00000000       0.00000000       0.00000000    -108.75041199
Hg       0.00000000       0.00000000       1.53030303       0.00000000       0.00000000     108.75041199
2
Properties=species:S:1:pos:R:3:forces:R:3 energy=27.527998765015294 pbc="F F F"
Hg       0.00000000       0.00000000       0.00000000       0.00000000       0.00000000     -94.07678986
Hg       0.00000000       0.00000000       1.58989899       0.00000000       0.00000000      94.07678986
2
Properties=species:S:1:pos:R:3:forces:R:3 energy=22.21204074668115 pbc="F F F"
Hg       0.00000000       0.00000000       0.00000000       0.00000000       0.00000000     -83.38225555
Hg       0.00000000       0.00000000       1.64949495       0.00000000       0.00000000      83.38225555
2
Properties=species:S:1:pos:R:3:forces:R:3 energy=17.613682691836388 pbc="F F F"
Hg       0.00000000       0.00000000       0.00000000       0.00000000       0.00000000     -70.48635864
Hg       0.00000000       0.00000000       1.70909091       0.00000000       0.00000000      70.48635864
2
Properties=species:S:1:pos:R:3:forces:R:3 energy=13.873204715671076 pbc="F F F"
Hg       0.00000000       0.00000000       0.00000000       0.00000000       0.00000000     -55.65624237
Hg       0.00000000       0.00000000       1.76868687       0.00000000       0.00000000      55.65624237
2
Properties=species:S:1:pos:R:3:forces:R:3 energy=10.861789614692725 pbc="F F F"
Hg       0.00000000       0.00000000       0.00000000       0.00000000       0.00000000     -45.90026474
Hg       0.00000000       0.00000000       1.82828283       0.00000000       0.00000000      45.90026474
2
Properties=species:S:1:pos:R:3:forces:R:3 energy=8.43434961758872 pbc="F F F"
Hg       0.00000000       0.00000000       0.00000000       0.00000000       0.00000000     -35.45375824
Hg       0.00000000       0.00000000       1.88787879       0.00000000       0.00000000      35.45375824
2
Properties=species:S:1:pos:R:3:forces:R:3 energy=6.597263837526381 pbc="F F F"
Hg       0.00000000       0.00000000       0.00000000       0.00000000       0.00000000     -26.73119926
Hg       0.00000000       0.00000000       1.94747475       0.00000000       0.00000000      26.73119926
2
Properties=species:S:1:pos:R:3:forces:R:3 energy=5.20034290480085 pbc="F F F"
Hg       0.00000000       0.00000000       0.00000000       0.00000000       0.00000000     -20.48352623
Hg       0.00000000       0.00000000       2.00707071       0.00000000       0.00000000      20.48352623
2
Properties=species:S:1:pos:R:3:forces:R:3 energy=4.116457301013626 pbc="F F F"
Hg       0.00000000       0.00000000       0.00000000       0.00000000       0.00000000     -16.15764427
Hg       0.00000000       0.00000000       2.06666667       0.00000000       0.00000000      16.15764427
2
Properties=species:S:1:pos:R:3:forces:R:3 energy=3.2556846597262106 pbc="F F F"
Hg       0.00000000       0.00000000       0.00000000       0.00000000       0.00000000     -12.87812138
Hg       0.00000000       0.00000000       2.12626263       0.00000000       0.00000000      12.87812138
2
Properties=species:S:1:pos:R:3:forces:R:3 energy=2.562815361593468 pbc="F F F"
Hg       0.00000000       0.00000000       0.00000000       0.00000000       0.00000000     -10.47154236
Hg       0.00000000       0.00000000       2.18585859       0.00000000       0.00000000      10.47154236
2
Properties=species:S:1:pos:R:3:forces:R:3 energy=2.002010747125198 pbc="F F F"
Hg       0.00000000       0.00000000       0.00000000       0.00000000       0.00000000      -8.39760971
Hg       0.00000000       0.00000000       2.24545455       0.00000000       0.00000000       8.39760971
2
Properties=species:S:1:pos:R:3:forces:R:3 energy=1.5537518408784832 pbc="F F F"
Hg       0.00000000       0.00000000       0.00000000       0.00000000       0.00000000      -6.70812845
Hg       0.00000000       0.00000000       2.30505051       0.00000000       0.00000000       6.70812845
2
Properties=species:S:1:pos:R:3:forces:R:3 energy=1.1971579615345902 pbc="F F F"
Hg       0.00000000       0.00000000       0.00000000       0.00000000       0.00000000      -5.30161524
Hg       0.00000000       0.00000000       2.36464646       0.00000000       0.00000000       5.30161524
2
Properties=species:S:1:pos:R:3:forces:R:3 energy=0.9155347642482663 pbc="F F F"
Hg       0.00000000       0.00000000       0.00000000       0.00000000       0.00000000      -4.20023775
Hg       0.00000000       0.00000000       2.42424242       0.00000000       0.00000000       4.20023775
2
Properties=species:S:1:pos:R:3:forces:R:3 energy=0.6919140227432944 pbc="F F F"
Hg       0.00000000       0.00000000       0.00000000       0.00000000       0.00000000      -3.33329320
Hg       0.00000000       0.00000000       2.48383838       0.00000000       0.00000000       3.33329320
2
Properties=species:S:1:pos:R:3:forces:R:3 energy=0.5155770270617033 pbc="F F F"
Hg       0.00000000       0.00000000       0.00000000       0.00000000       0.00000000      -2.60233665
Hg       0.00000000       0.00000000       2.54343434       0.00000000       0.00000000       2.60233665
2
Properties=species:S:1:pos:R:3:forces:R:3 energy=0.37964040621295375 pbc="F F F"
Hg       0.00000000       0.00000000       0.00000000       0.00000000       0.00000000      -1.97850299
Hg       0.00000000       0.00000000       2.60303030       0.00000000       0.00000000       1.97850299
2
Properties=species:S:1:pos:R:3:forces:R:3 energy=0.2773439400138454 pbc="F F F"
Hg       0.00000000       0.00000000       0.00000000       0.00000000       0.00000000      -1.47480977
Hg       0.00000000       0.00000000       2.66262626       0.00000000       0.00000000       1.47480977
2
Properties=species:S:1:pos:R:3:forces:R:3 energy=0.2017098810256438 pbc="F F F"
Hg       0.00000000       0.00000000       0.00000000       0.00000000       0.00000000      -1.07849300
Hg       0.00000000       0.00000000       2.72222222       0.00000000       0.00000000       1.07849300
2
Properties=species:S:1:pos:R:3:forces:R:3 energy=0.1471717026536061 pbc="F F F"
Hg       0.00000000       0.00000000       0.00000000       0.00000000       0.00000000      -0.76522160
Hg       0.00000000       0.00000000       2.78181818       0.00000000       0.00000000       0.76522160
2
Properties=species:S:1:pos:R:3:forces:R:3 energy=0.10887807095133778 pbc="F F F"
Hg       0.00000000       0.00000000       0.00000000       0.00000000       0.00000000      -0.53301907
Hg       0.00000000       0.00000000       2.84141414       0.00000000       0.00000000       0.53301907
2
Properties=species:S:1:pos:R:3:forces:R:3 energy=0.08226217469206634 pbc="F F F"
Hg       0.00000000       0.00000000       0.00000000       0.00000000       0.00000000      -0.36986104
Hg       0.00000000       0.00000000       2.90101010       0.00000000       0.00000000       0.36986104
2
Properties=species:S:1:pos:R:3:forces:R:3 energy=0.06386036027949868 pbc="F F F"
Hg       0.00000000       0.00000000       0.00000000       0.00000000       0.00000000      -0.25391674
Hg       0.00000000       0.00000000       2.96060606       0.00000000       0.00000000       0.25391674
2
Properties=species:S:1:pos:R:3:forces:R:3 energy=0.05140027586005523 pbc="F F F"
Hg       0.00000000       0.00000000       0.00000000       0.00000000       0.00000000      -0.16825593
Hg       0.00000000       0.00000000       3.02020202       0.00000000       0.00000000       0.16825593
2
Properties=species:S:1:pos:R:3:forces:R:3 energy=0.04341392910711525 pbc="F F F"
Hg       0.00000000       0.00000000       0.00000000       0.00000000       0.00000000      -0.10245337
Hg       0.00000000       0.00000000       3.07979798       0.00000000       0.00000000       0.10245337
2
Properties=species:S:1:pos:R:3:forces:R:3 energy=0.03891673926457737 pbc="F F F"
Hg       0.00000000       0.00000000       0.00000000       0.00000000       0.00000000      -0.05043874
Hg       0.00000000       0.00000000       3.13939394       0.00000000       0.00000000       0.05043874
2
Properties=species:S:1:pos:R:3:forces:R:3 energy=0.03719028398758301 pbc="F F F"
Hg       0.00000000       0.00000000       0.00000000       0.00000000       0.00000000      -0.00911909
Hg       0.00000000       0.00000000       3.19898990       0.00000000       0.00000000       0.00911909
2
Properties=species:S:1:pos:R:3:forces:R:3 energy=0.03764932445918637 pbc="F F F"
Hg       0.00000000       0.00000000       0.00000000       0.00000000       0.00000000       0.02310879
Hg       0.00000000       0.00000000       3.25858586       0.00000000       0.00000000      -0.02310879
2
Properties=species:S:1:pos:R:3:forces:R:3 energy=0.03978857303977679 pbc="F F F"
Hg       0.00000000       0.00000000       0.00000000       0.00000000       0.00000000       0.04746082
Hg       0.00000000       0.00000000       3.31818182       0.00000000       0.00000000      -0.04746082
2
Properties=species:S:1:pos:R:3:forces:R:3 energy=0.043174092868541354 pbc="F F F"
Hg       0.00000000       0.00000000       0.00000000       0.00000000       0.00000000       0.06517003
Hg       0.00000000       0.00000000       3.37777778       0.00000000       0.00000000      -0.06517003
2
Properties=species:S:1:pos:R:3:forces:R:3 energy=0.04745425932441908 pbc="F F F"
Hg       0.00000000       0.00000000       0.00000000       0.00000000       0.00000000       0.07776484
Hg       0.00000000       0.00000000       3.43737374       0.00000000       0.00000000      -0.07776484
2
Properties=species:S:1:pos:R:3:forces:R:3 energy=0.05237779847641843 pbc="F F F"
Hg       0.00000000       0.00000000       0.00000000       0.00000000       0.00000000       0.08707053
Hg       0.00000000       0.00000000       3.49696970       0.00000000       0.00000000      -0.08707053
2
Properties=species:S:1:pos:R:3:forces:R:3 energy=0.05779873406028087 pbc="F F F"
Hg       0.00000000       0.00000000       0.00000000       0.00000000       0.00000000       0.09464534
Hg       0.00000000       0.00000000       3.55656566       0.00000000       0.00000000      -0.09464534
2
Properties=species:S:1:pos:R:3:forces:R:3 energy=0.06363811423981967 pbc="F F F"
Hg       0.00000000       0.00000000       0.00000000       0.00000000       0.00000000       0.10114843
Hg       0.00000000       0.00000000       3.61616162       0.00000000       0.00000000      -0.10114843
2
Properties=species:S:1:pos:R:3:forces:R:3 energy=0.06982889545284893 pbc="F F F"
Hg       0.00000000       0.00000000       0.00000000       0.00000000       0.00000000       0.10633836
Hg       0.00000000       0.00000000       3.67575758       0.00000000       0.00000000      -0.10633836
2
Properties=species:S:1:pos:R:3:forces:R:3 energy=0.07627481352611815 pbc="F F F"
Hg       0.00000000       0.00000000       0.00000000       0.00000000       0.00000000       0.10963596
Hg       0.00000000       0.00000000       3.73535354       0.00000000       0.00000000      -0.10963596
2
Properties=species:S:1:pos:R:3:forces:R:3 energy=0.08285171389633819 pbc="F F F"
Hg       0.00000000       0.00000000       0.00000000       0.00000000       0.00000000       0.11069076
Hg       0.00000000       0.00000000       3.79494949       0.00000000       0.00000000      -0.11069076
2
Properties=species:S:1:pos:R:3:forces:R:3 energy=0.08942504828123987 pbc="F F F"
Hg       0.00000000       0.00000000       0.00000000       0.00000000       0.00000000       0.10956828
Hg       0.00000000       0.00000000       3.85454545       0.00000000       0.00000000      -0.10956828
2
Properties=species:S:1:pos:R:3:forces:R:3 energy=0.09587455300238108 pbc="F F F"
Hg       0.00000000       0.00000000       0.00000000       0.00000000       0.00000000       0.10659631
Hg       0.00000000       0.00000000       3.91414141       0.00000000       0.00000000      -0.10659631
2
Properties=species:S:1:pos:R:3:forces:R:3 energy=0.10210110351929594 pbc="F F F"
Hg       0.00000000       0.00000000       0.00000000       0.00000000       0.00000000       0.10214014
Hg       0.00000000       0.00000000       3.97373737       0.00000000       0.00000000      -0.10214014
2
Properties=species:S:1:pos:R:3:forces:R:3 energy=0.10802588946793443 pbc="F F F"
Hg       0.00000000       0.00000000       0.00000000       0.00000000       0.00000000       0.09652492
Hg       0.00000000       0.00000000       4.03333333       0.00000000       0.00000000      -0.09652492
2
Properties=species:S:1:pos:R:3:forces:R:3 energy=0.11358967406234781 pbc="F F F"
Hg       0.00000000       0.00000000       0.00000000       0.00000000       0.00000000       0.09008441
Hg       0.00000000       0.00000000       4.09292929       0.00000000       0.00000000      -0.09008441
2
Properties=species:S:1:pos:R:3:forces:R:3 energy=0.11875444518576161 pbc="F F F"
Hg       0.00000000       0.00000000       0.00000000       0.00000000       0.00000000       0.08319589
Hg       0.00000000       0.00000000       4.15252525       0.00000000       0.00000000      -0.08319589
2
Properties=species:S:1:pos:R:3:forces:R:3 energy=0.12350457580524965 pbc="F F F"
Hg       0.00000000       0.00000000       0.00000000       0.00000000       0.00000000       0.07623091
Hg       0.00000000       0.00000000       4.21212121       0.00000000       0.00000000      -0.07623091
2
Properties=species:S:1:pos:R:3:forces:R:3 energy=0.1278448835289856 pbc="F F F"
Hg       0.00000000       0.00000000       0.00000000       0.00000000       0.00000000       0.06948290
Hg       0.00000000       0.00000000       4.27171717       0.00000000       0.00000000      -0.06948290
2
Properties=species:S:1:pos:R:3:forces:R:3 energy=0.13179454834862994 pbc="F F F"
Hg       0.00000000       0.00000000       0.00000000       0.00000000       0.00000000       0.06314849
Hg       0.00000000       0.00000000       4.33131313       0.00000000       0.00000000      -0.06314849
2
Properties=species:S:1:pos:R:3:forces:R:3 energy=0.13538225673667972 pbc="F F F"
Hg       0.00000000       0.00000000       0.00000000       0.00000000       0.00000000       0.05735261
Hg       0.00000000       0.00000000       4.39090909       0.00000000       0.00000000      -0.05735261
2
Properties=species:S:1:pos:R:3:forces:R:3 energy=0.13864287029002254 pbc="F F F"
Hg       0.00000000       0.00000000       0.00000000       0.00000000       0.00000000       0.05217604
Hg       0.00000000       0.00000000       4.45050505       0.00000000       0.00000000      -0.05217604
2
Properties=species:S:1:pos:R:3:forces:R:3 energy=0.14161437480567543 pbc="F F F"
Hg       0.00000000       0.00000000       0.00000000       0.00000000       0.00000000       0.04765707
Hg       0.00000000       0.00000000       4.51010101       0.00000000       0.00000000      -0.04765707
2
Properties=species:S:1:pos:R:3:forces:R:3 energy=0.1443359968588353 pbc="F F F"
Hg       0.00000000       0.00000000       0.00000000       0.00000000       0.00000000       0.04377905
Hg       0.00000000       0.00000000       4.56969697       0.00000000       0.00000000      -0.04377905
2
Properties=species:S:1:pos:R:3:forces:R:3 energy=0.14684360632567572 pbc="F F F"
Hg       0.00000000       0.00000000       0.00000000       0.00000000       0.00000000       0.04046913
Hg       0.00000000       0.00000000       4.62929293       0.00000000       0.00000000      -0.04046913
2
Properties=species:S:1:pos:R:3:forces:R:3 energy=0.14916865100333743 pbc="F F F"
Hg       0.00000000       0.00000000       0.00000000       0.00000000       0.00000000       0.03761800
Hg       0.00000000       0.00000000       4.68888889       0.00000000       0.00000000      -0.03761800
2
Properties=species:S:1:pos:R:3:forces:R:3 energy=0.15133429973103965 pbc="F F F"
Hg       0.00000000       0.00000000       0.00000000       0.00000000       0.00000000       0.03511322
Hg       0.00000000       0.00000000       4.74848485       0.00000000       0.00000000      -0.03511322
2
Properties=species:S:1:pos:R:3:forces:R:3 energy=0.15335890379525144 pbc="F F F"
Hg       0.00000000       0.00000000       0.00000000       0.00000000       0.00000000       0.03287062
Hg       0.00000000       0.00000000       4.80808081       0.00000000       0.00000000      -0.03287062
2
Properties=species:S:1:pos:R:3:forces:R:3 energy=0.155256716353186 pbc="F F F"
Hg       0.00000000       0.00000000       0.00000000       0.00000000       0.00000000       0.03084736
Hg       0.00000000       0.00000000       4.86767677       0.00000000       0.00000000      -0.03084736
2
Properties=species:S:1:pos:R:3:forces:R:3 energy=0.15703999343454364 pbc="F F F"
Hg       0.00000000       0.00000000       0.00000000       0.00000000       0.00000000       0.02903181
Hg       0.00000000       0.00000000       4.92727273       0.00000000       0.00000000      -0.02903181
2
Properties=species:S:1:pos:R:3:forces:R:3 energy=0.15872119931336845 pbc="F F F"
Hg       0.00000000       0.00000000       0.00000000       0.00000000       0.00000000       0.02741974
Hg       0.00000000       0.00000000       4.98686869       0.00000000       0.00000000      -0.02741974
2
Properties=species:S:1:pos:R:3:forces:R:3 energy=0.16031155223790752 pbc="F F F"
Hg       0.00000000       0.00000000       0.00000000       0.00000000       0.00000000       0.02599005
Hg       0.00000000       0.00000000       5.04646465       0.00000000       0.00000000      -0.02599005
2
Properties=species:S:1:pos:R:3:forces:R:3 energy=0.16182128185612302 pbc="F F F"
Hg       0.00000000       0.00000000       0.00000000       0.00000000       0.00000000       0.02469252
Hg       0.00000000       0.00000000       5.10606061       0.00000000       0.00000000      -0.02469252
2
Properties=species:S:1:pos:R:3:forces:R:3 energy=0.16325622958305275 pbc="F F F"
Hg       0.00000000       0.00000000       0.00000000       0.00000000       0.00000000       0.02345286
Hg       0.00000000       0.00000000       5.16565657       0.00000000       0.00000000      -0.02345286
2
Properties=species:S:1:pos:R:3:forces:R:3 energy=0.16461645235140332 pbc="F F F"
Hg       0.00000000       0.00000000       0.00000000       0.00000000       0.00000000       0.02219095
Hg       0.00000000       0.00000000       5.22525253       0.00000000       0.00000000      -0.02219095
2
Properties=species:S:1:pos:R:3:forces:R:3 energy=0.16589927353581108 pbc="F F F"
Hg       0.00000000       0.00000000       0.00000000       0.00000000       0.00000000       0.02084184
Hg       0.00000000       0.00000000       5.28484848       0.00000000       0.00000000      -0.02084184
2
Properties=species:S:1:pos:R:3:forces:R:3 energy=0.16709828276112848 pbc="F F F"
Hg       0.00000000       0.00000000       0.00000000       0.00000000       0.00000000       0.01937122
Hg       0.00000000       0.00000000       5.34444444       0.00000000       0.00000000      -0.01937122
2
Properties=species:S:1:pos:R:3:forces:R:3 energy=0.16820579711588188 pbc="F F F"
Hg       0.00000000       0.00000000       0.00000000       0.00000000       0.00000000       0.01778174
Hg       0.00000000       0.00000000       5.40404040       0.00000000       0.00000000      -0.01778174
2
Properties=species:S:1:pos:R:3:forces:R:3 energy=0.16921613644789135 pbc="F F F"
Hg       0.00000000       0.00000000       0.00000000       0.00000000       0.00000000       0.01610872
Hg       0.00000000       0.00000000       5.46363636       0.00000000       0.00000000      -0.01610872
2
Properties=species:S:1:pos:R:3:forces:R:3 energy=0.17012535722724786 pbc="F F F"
Hg       0.00000000       0.00000000       0.00000000       0.00000000       0.00000000       0.01441045
Hg       0.00000000       0.00000000       5.52323232       0.00000000       0.00000000      -0.01441045
2
Properties=species:S:1:pos:R:3:forces:R:3 energy=0.1709345365534442 pbc="F F F"
Hg       0.00000000       0.00000000       0.00000000       0.00000000       0.00000000       0.01275536
Hg       0.00000000       0.00000000       5.58282828       0.00000000       0.00000000      -0.01275536
2
Properties=species:S:1:pos:R:3:forces:R:3 energy=0.17164794025049762 pbc="F F F"
Hg       0.00000000       0.00000000       0.00000000       0.00000000       0.00000000       0.01121331
Hg       0.00000000       0.00000000       5.64242424       0.00000000       0.00000000      -0.01121331
2
Properties=species:S:1:pos:R:3:forces:R:3 energy=0.17227455220484958 pbc="F F F"
Hg       0.00000000       0.00000000       0.00000000       0.00000000       0.00000000       0.00984428
Hg       0.00000000       0.00000000       5.70202020       0.00000000       0.00000000      -0.00984428
2
Properties=species:S:1:pos:R:3:forces:R:3 energy=0.17282557255419628 pbc="F F F"
Hg       0.00000000       0.00000000       0.00000000       0.00000000       0.00000000       0.00869199
Hg       0.00000000       0.00000000       5.76161616       0.00000000       0.00000000      -0.00869199
2
Properties=species:S:1:pos:R:3:forces:R:3 energy=0.17331499631091454 pbc="F F F"
Hg       0.00000000       0.00000000       0.00000000       0.00000000       0.00000000       0.00777497
Hg       0.00000000       0.00000000       5.82121212       0.00000000       0.00000000      -0.00777497
2
Properties=species:S:1:pos:R:3:forces:R:3 energy=0.1737568319506253 pbc="F F F"
Hg       0.00000000       0.00000000       0.00000000       0.00000000       0.00000000       0.00708330
Hg       0.00000000       0.00000000       5.88080808       0.00000000       0.00000000      -0.00708330
2
Properties=species:S:1:pos:R:3:forces:R:3 energy=0.17416296435649264 pbc="F F F"
Hg       0.00000000       0.00000000       0.00000000       0.00000000       0.00000000       0.00657405
Hg       0.00000000       0.00000000       5.94040404       0.00000000       0.00000000      -0.00657405
2
Properties=species:S:1:pos:R:3:forces:R:3 energy=0.17454258036355497 pbc="F F F"
Hg       0.00000000       0.00000000       0.00000000       0.00000000       0.00000000       0.00617705
Hg       0.00000000       0.00000000       6.00000000       0.00000000       0.00000000      -0.00617705
