2
Properties=species:S:1:pos:R:3:forces:R:3 energy=-2190040.5496143545 pbc="F F F"
I        0.00000000       0.00000000       0.00000000       0.00000000       0.00000000 21731734.00000000
I        0.00000000       0.00000000       0.18000000       0.00000000       0.00000000 -21731734.00000000
2
Properties=species:S:1:pos:R:3:forces:R:3 energy=-1123231.4246143545 pbc="F F F"
I        0.00000000       0.00000000       0.00000000       0.00000000       0.00000000 14260663.00000000
I        0.00000000       0.00000000       0.23878788       0.00000000       0.00000000 -14260663.00000000
2
Properties=species:S:1:pos:R:3:forces:R:3 energy=-497466.67461435444 pbc="F F F"
I        0.00000000       0.00000000       0.00000000       0.00000000       0.00000000 7435240.00000000
I        0.00000000       0.00000000       0.29757576       0.00000000       0.00000000 -7435240.00000000
2
Properties=species:S:1:pos:R:3:forces:R:3 energy=-194072.09648934813 pbc="F F F"
I        0.00000000       0.00000000       0.00000000       0.00000000       0.00000000 3321515.50000000
I        0.00000000       0.00000000       0.35636364       0.00000000       0.00000000 -3321515.50000000
2
Properties=species:S:1:pos:R:3:forces:R:3 energy=-64066.393364341784 pbc="F F F"
I        0.00000000       0.00000000       0.00000000       0.00000000       0.00000000 1344800.25000000
I        0.00000000       0.00000000       0.41515152       0.00000000       0.00000000 -1344800.25000000
2
Properties=species:S:1:pos:R:3:forces:R:3 energy=-14068.858208072776 pbc="F F F"
I        0.00000000       0.00000000       0.00000000       0.00000000       0.00000000  516929.43750000
I        0.00000000       0.00000000       0.47393939       0.00000000       0.00000000 -516929.43750000
2
Properties=species:S:1:pos:R:3:forces:R:3 energy=-672.0087817652302 pbc="F F F"
I        0.00000000       0.00000000       0.00000000       0.00000000       0.00000000   57703.16406250
I        0.00000000       0.00000000       0.53272727       0.00000000       0.00000000  -57703.16406250
2
Properties=species:S:1:pos:R:3:forces:R:3 energy=1006.2773511042907 pbc="F F F"
I        0.00000000       0.00000000       0.00000000       0.00000000       0.00000000   14623.32226562
I        0.00000000       0.00000000       0.59151515       0.00000000       0.00000000  -14623.32226562
2
Properties=species:S:1:pos:R:3:forces:R:3 energy=81.55118543100875 pbc="F F F"
I        0.00000000       0.00000000       0.00000000       0.00000000       0.00000000   -8113.00244141
I        0.00000000       0.00000000       0.65030303       0.00000000       0.00000000    8113.00244141
2
Properties=species:S:1:pos:R:3:forces:R:3 energy=-43.726234457713275 pbc="F F F"
I        0.00000000       0.00000000       0.00000000       0.00000000       0.00000000    1309.75646973
I        0.00000000       0.00000000       0.70909091       0.00000000       0.00000000   -1309.75646973
2
Properties=species:S:1:pos:R:3:forces:R:3 energy=25.33527014071923 pbc="F F F"
I        0.00000000       0.00000000       0.00000000       0.00000000       0.00000000     902.31268311
I        0.00000000       0.00000000       0.76787879       0.00000000       0.00000000    -902.31268311
2
Properties=species:S:1:pos:R:3:forces:R:3 energy=51.522194466724734 pbc="F F F"
I        0.00000000       0.00000000       0.00000000       0.00000000       0.00000000     269.50997925
I        0.00000000       0.00000000       0.82666667       0.00000000       0.00000000    -269.50997925
2
Properties=species:S:1:pos:R:3:forces:R:3 energy=71.6182414086589 pbc="F F F"
I        0.00000000       0.00000000       0.00000000       0.00000000       0.00000000     231.66850281
I        0.00000000       0.00000000       0.88545455       0.00000000       0.00000000    -231.66850281
2
Properties=species:S:1:pos:R:3:forces:R:3 energy=82.16985495641586 pbc="F F F"
I        0.00000000       0.00000000       0.00000000       0.00000000       0.00000000     139.45924377
I        0.00000000       0.00000000       0.94424242       0.00000000       0.00000000    -139.45924377
2
Properties=species:S:1:pos:R:3:forces:R:3 energy=83.58034022389516 pbc="F F F"
I        0.00000000       0.00000000       0.00000000       0.00000000       0.00000000    -111.53504181
I        0.00000000       0.00000000       1.00303030       0.00000000       0.00000000     111.53504181
2
Properties=species:S:1:pos:R:3:forces:R:3 energy=79.73302858595268 pbc="F F F"
I        0.00000000       0.00000000       0.00000000       0.00000000       0.00000000      79.77507782
I        0.00000000       0.00000000       1.06181818       0.00000000       0.00000000     -79.77507782
2
Properties=species:S:1:pos:R:3:forces:R:3 energy=81.4002055895454 pbc="F F F"
I        0.00000000       0.00000000       0.00000000       0.00000000       0.00000000     -97.89662170
I        0.00000000       0.00000000       1.12060606       0.00000000       0.00000000      97.89662170
2
Properties=species:S:1:pos:R:3:forces:R:3 energy=73.25172455599629 pbc="F F F"
I        0.00000000       0.00000000       0.00000000       0.00000000       0.00000000    -127.99863434
I        0.00000000       0.00000000       1.17939394       0.00000000       0.00000000     127.99863434
2
Properties=species:S:1:pos:R:3:forces:R:3 energy=70.42843948751855 pbc="F F F"
I        0.00000000       0.00000000       0.00000000       0.00000000       0.00000000      -4.71867323
I        0.00000000       0.00000000       1.23818182       0.00000000       0.00000000       4.71867323
2
Properties=species:S:1:pos:R:3:forces:R:3 energy=62.9856674675521 pbc="F F F"
I        0.00000000       0.00000000       0.00000000       0.00000000       0.00000000    -178.37110901
I        0.00000000       0.00000000       1.29696970       0.00000000       0.00000000     178.37110901
2
Properties=species:S:1:pos:R:3:forces:R:3 energy=55.20297638249738 pbc="F F F"
I        0.00000000       0.00000000       0.00000000       0.00000000       0.00000000     -81.51433563
I        0.00000000       0.00000000       1.35575758       0.00000000       0.00000000      81.51433563
2
Properties=species:S:1:pos:R:3:forces:R:3 energy=51.318960496606444 pbc="F F F"
I        0.00000000       0.00000000       0.00000000       0.00000000       0.00000000     -56.44851303
I        0.00000000       0.00000000       1.41454545       0.00000000       0.00000000      56.44851303
2
Properties=species:S:1:pos:R:3:forces:R:3 energy=49.791978802610906 pbc="F F F"
I        0.00000000       0.00000000       0.00000000       0.00000000       0.00000000      -4.78496695
I        0.00000000       0.00000000       1.47333333       0.00000000       0.00000000       4.78496695
2
Properties=species:S:1:pos:R:3:forces:R:3 energy=49.32741488639602 pbc="F F F"
I        0.00000000       0.00000000       0.00000000       0.00000000       0.00000000     -22.52942085
I        0.00000000       0.00000000       1.53212121       0.00000000       0.00000000      22.52942085
2
Properties=species:S:1:pos:R:3:forces:R:3 energy=46.47247973592862 pbc="F F F"
I        0.00000000       0.00000000       0.00000000       0.00000000       0.00000000     -72.73565674
I        0.00000000       0.00000000       1.59090909       0.00000000       0.00000000      72.73565674
2
Properties=species:S:1:pos:R:3:forces:R:3 energy=41.063042554125296 pbc="F F F"
I        0.00000000       0.00000000       0.00000000       0.00000000       0.00000000    -107.52745819
I        0.00000000       0.00000000       1.64969697       0.00000000       0.00000000     107.52745819
2
Properties=species:S:1:pos:R:3:forces:R:3 energy=34.12753086098724 pbc="F F F"
I        0.00000000       0.00000000       0.00000000       0.00000000       0.00000000    -124.53552246
I        0.00000000       0.00000000       1.70848485       0.00000000       0.00000000     124.53552246
2
Properties=species:S:1:pos:R:3:forces:R:3 energy=26.98195462466177 pbc="F F F"
I        0.00000000       0.00000000       0.00000000       0.00000000       0.00000000    -116.21604156
I        0.00000000       0.00000000       1.76727273       0.00000000       0.00000000     116.21604156
2
Properties=species:S:1:pos:R:3:forces:R:3 energy=20.54306620406922 pbc="F F F"
I        0.00000000       0.00000000       0.00000000       0.00000000       0.00000000    -101.86386871
I        0.00000000       0.00000000       1.82606061       0.00000000       0.00000000     101.86386871
2
Properties=species:S:1:pos:R:3:forces:R:3 energy=15.168580895292616 pbc="F F F"
I        0.00000000       0.00000000       0.00000000       0.00000000       0.00000000     -80.90336609
I        0.00000000       0.00000000       1.88484848       0.00000000       0.00000000      80.90336609
2
Properties=species:S:1:pos:R:3:forces:R:3 energy=10.9457661588588 pbc="F F F"
I        0.00000000       0.00000000       0.00000000       0.00000000       0.00000000     -63.58903503
I        0.00000000       0.00000000       1.94363636       0.00000000       0.00000000      63.58903503
2
Properties=species:S:1:pos:R:3:forces:R:3 energy=7.6173796556327815 pbc="F F F"
I        0.00000000       0.00000000       0.00000000       0.00000000       0.00000000     -50.20938110
I        0.00000000       0.00000000       2.00242424       0.00000000       0.00000000      50.20938110
2
Properties=species:S:1:pos:R:3:forces:R:3 energy=4.9747409442898265 pbc="F F F"
I        0.00000000       0.00000000       0.00000000       0.00000000       0.00000000     -40.17886734
I        0.00000000       0.00000000       2.06121212       0.00000000       0.00000000      40.17886734
2
Properties=species:S:1:pos:R:3:forces:R:3 energy=2.866314999993865 pbc="F F F"
I        0.00000000       0.00000000       0.00000000       0.00000000       0.00000000     -31.71541977
I        0.00000000       0.00000000       2.12000000       0.00000000       0.00000000      31.71541977
2
Properties=species:S:1:pos:R:3:forces:R:3 energy=1.2181625086632206 pbc="F F F"
I        0.00000000       0.00000000       0.00000000       0.00000000       0.00000000     -24.53816605
I        0.00000000       0.00000000       2.17878788       0.00000000       0.00000000      24.53816605
2
Properties=species:S:1:pos:R:3:forces:R:3 energy=-0.03029439927724016 pbc="F F F"
I        0.00000000       0.00000000       0.00000000       0.00000000       0.00000000     -18.05060959
I        0.00000000       0.00000000       2.23757576       0.00000000       0.00000000      18.05060959
2
Properties=species:S:1:pos:R:3:forces:R:3 energy=-0.9265612659332769 pbc="F F F"
I        0.00000000       0.00000000       0.00000000       0.00000000       0.00000000     -12.66234684
I        0.00000000       0.00000000       2.29636364       0.00000000       0.00000000      12.66234684
2
Properties=species:S:1:pos:R:3:forces:R:3 energy=-1.5435294912070199 pbc="F F F"
I        0.00000000       0.00000000       0.00000000       0.00000000       0.00000000      -8.52935696
I        0.00000000       0.00000000       2.35515152       0.00000000       0.00000000       8.52935696
2
Properties=species:S:1:pos:R:3:forces:R:3 energy=-1.9536687038626197 pbc="F F F"
I        0.00000000       0.00000000       0.00000000       0.00000000       0.00000000      -5.61559105
I        0.00000000       0.00000000       2.41393939       0.00000000       0.00000000       5.61559105
2
Properties=species:S:1:pos:R:3:forces:R:3 energy=-2.221430233080953 pbc="F F F"
I        0.00000000       0.00000000       0.00000000       0.00000000       0.00000000      -3.60504770
I        0.00000000       0.00000000       2.47272727       0.00000000       0.00000000       3.60504770
2
Properties=species:S:1:pos:R:3:forces:R:3 energy=-2.3883739887912645 pbc="F F F"
I        0.00000000       0.00000000       0.00000000       0.00000000       0.00000000      -2.15686870
I        0.00000000       0.00000000       2.53151515       0.00000000       0.00000000       2.15686870
2
Properties=species:S:1:pos:R:3:forces:R:3 energy=-2.48365306640685 pbc="F F F"
I        0.00000000       0.00000000       0.00000000       0.00000000       0.00000000      -1.14669716
I        0.00000000       0.00000000       2.59030303       0.00000000       0.00000000       1.14669716
2
Properties=species:S:1:pos:R:3:forces:R:3 energy=-2.5291918470709147 pbc="F F F"
I        0.00000000       0.00000000       0.00000000       0.00000000       0.00000000      -0.44448313
I        0.00000000       0.00000000       2.64909091       0.00000000       0.00000000       0.44448313
2
Properties=species:S:1:pos:R:3:forces:R:3 energy=-2.540168807950545 pbc="F F F"
I        0.00000000       0.00000000       0.00000000       0.00000000       0.00000000       0.03924993
I        0.00000000       0.00000000       2.70787879       0.00000000       0.00000000      -0.03924993
2
Properties=species:S:1:pos:R:3:forces:R:3 energy=-2.527865529222307 pbc="F F F"
I        0.00000000       0.00000000       0.00000000       0.00000000       0.00000000       0.35502598
I        0.00000000       0.00000000       2.76666667       0.00000000       0.00000000      -0.35502598
2
Properties=species:S:1:pos:R:3:forces:R:3 energy=-2.500912313106713 pbc="F F F"
I        0.00000000       0.00000000       0.00000000       0.00000000       0.00000000       0.54364967
I        0.00000000       0.00000000       2.82545455       0.00000000       0.00000000      -0.54364967
2
Properties=species:S:1:pos:R:3:forces:R:3 energy=-2.4657802734798464 pbc="F F F"
I        0.00000000       0.00000000       0.00000000       0.00000000       0.00000000       0.63848174
I        0.00000000       0.00000000       2.88424242       0.00000000       0.00000000      -0.63848174
2
Properties=species:S:1:pos:R:3:forces:R:3 energy=-2.4271424418182095 pbc="F F F"
I        0.00000000       0.00000000       0.00000000       0.00000000       0.00000000       0.66661376
I        0.00000000       0.00000000       2.94303030       0.00000000       0.00000000      -0.66661376
2
Properties=species:S:1:pos:R:3:forces:R:3 energy=-2.3883195307460947 pbc="F F F"
I        0.00000000       0.00000000       0.00000000       0.00000000       0.00000000       0.64815891
I        0.00000000       0.00000000       3.00181818       0.00000000       0.00000000      -0.64815891
2
Properties=species:S:1:pos:R:3:forces:R:3 energy=-2.351392559471758 pbc="F F F"
I        0.00000000       0.00000000       0.00000000       0.00000000       0.00000000       0.60640329
I        0.00000000       0.00000000       3.06060606       0.00000000       0.00000000      -0.60640329
2
Properties=species:S:1:pos:R:3:forces:R:3 energy=-2.3170162425639904 pbc="F F F"
I        0.00000000       0.00000000       0.00000000       0.00000000       0.00000000       0.56433368
I        0.00000000       0.00000000       3.11939394       0.00000000       0.00000000      -0.56433368
2
Properties=species:S:1:pos:R:3:forces:R:3 energy=-2.284868674398717 pbc="F F F"
I        0.00000000       0.00000000       0.00000000       0.00000000       0.00000000       0.53048629
I        0.00000000       0.00000000       3.17818182       0.00000000       0.00000000      -0.53048629
2
Properties=species:S:1:pos:R:3:forces:R:3 energy=-2.254587421521087 pbc="F F F"
I        0.00000000       0.00000000       0.00000000       0.00000000       0.00000000       0.49955773
I        0.00000000       0.00000000       3.23696970       0.00000000       0.00000000      -0.49955773
2
Properties=species:S:1:pos:R:3:forces:R:3 energy=-2.2261982706066217 pbc="F F F"
I        0.00000000       0.00000000       0.00000000       0.00000000       0.00000000       0.46548042
I        0.00000000       0.00000000       3.29575758       0.00000000       0.00000000      -0.46548042
2
Properties=species:S:1:pos:R:3:forces:R:3 energy=-2.199952523956124 pbc="F F F"
I        0.00000000       0.00000000       0.00000000       0.00000000       0.00000000       0.42661741
I        0.00000000       0.00000000       3.35454545       0.00000000       0.00000000      -0.42661741
2
Properties=species:S:1:pos:R:3:forces:R:3 energy=-2.176131971114436 pbc="F F F"
I        0.00000000       0.00000000       0.00000000       0.00000000       0.00000000       0.38298717
I        0.00000000       0.00000000       3.41333333       0.00000000       0.00000000      -0.38298717
2
Properties=species:S:1:pos:R:3:forces:R:3 energy=-2.155008803575666 pbc="F F F"
I        0.00000000       0.00000000       0.00000000       0.00000000       0.00000000       0.33499047
I        0.00000000       0.00000000       3.47212121       0.00000000       0.00000000      -0.33499047
2
Properties=species:S:1:pos:R:3:forces:R:3 energy=-2.1368013696583845 pbc="F F F"
I        0.00000000       0.00000000       0.00000000       0.00000000       0.00000000       0.28415632
I        0.00000000       0.00000000       3.53090909       0.00000000       0.00000000      -0.28415632
2
Properties=species:S:1:pos:R:3:forces:R:3 energy=-2.1216058513748988 pbc="F F F"
I        0.00000000       0.00000000       0.00000000       0.00000000       0.00000000       0.23297472
I        0.00000000       0.00000000       3.58969697       0.00000000       0.00000000      -0.23297472
2
Properties=species:S:1:pos:R:3:forces:R:3 energy=-2.109368918577009 pbc="F F F"
I        0.00000000       0.00000000       0.00000000       0.00000000       0.00000000       0.18382502
I        0.00000000       0.00000000       3.64848485       0.00000000       0.00000000      -0.18382502
2
Properties=species:S:1:pos:R:3:forces:R:3 energy=-2.0999206140162276 pbc="F F F"
I        0.00000000       0.00000000       0.00000000       0.00000000       0.00000000       0.13830043
I        0.00000000       0.00000000       3.70727273       0.00000000       0.00000000      -0.13830043
2
Properties=species:S:1:pos:R:3:forces:R:3 energy=-2.093019897820551 pbc="F F F"
I        0.00000000       0.00000000       0.00000000       0.00000000       0.00000000       0.09731913
I        0.00000000       0.00000000       3.76606061       0.00000000       0.00000000      -0.09731913
2
Properties=species:S:1:pos:R:3:forces:R:3 energy=-2.0883771490765692 pbc="F F F"
I        0.00000000       0.00000000       0.00000000       0.00000000       0.00000000       0.06151930
I        0.00000000       0.00000000       3.82484848       0.00000000       0.00000000      -0.06151930
2
Properties=species:S:1:pos:R:3:forces:R:3 energy=-2.085673555778308 pbc="F F F"
I        0.00000000       0.00000000       0.00000000       0.00000000       0.00000000       0.03145434
I        0.00000000       0.00000000       3.88363636       0.00000000       0.00000000      -0.03145434
2
Properties=species:S:1:pos:R:3:forces:R:3 energy=-2.0845579978827566 pbc="F F F"
I        0.00000000       0.00000000       0.00000000       0.00000000       0.00000000       0.00751183
I        0.00000000       0.00000000       3.94242424       0.00000000       0.00000000      -0.00751183
2
Properties=species:S:1:pos:R:3:forces:R:3 energy=-2.0846694824948924 pbc="F F F"
I        0.00000000       0.00000000       0.00000000       0.00000000       0.00000000      -0.01029093
I        0.00000000       0.00000000       4.00121212       0.00000000       0.00000000       0.01029093
2
Properties=species:S:1:pos:R:3:forces:R:3 energy=-2.085657601180069 pbc="F F F"
I        0.00000000       0.00000000       0.00000000       0.00000000       0.00000000      -0.02246235
I        0.00000000       0.00000000       4.06000000       0.00000000       0.00000000       0.02246235
2
Properties=species:S:1:pos:R:3:forces:R:3 energy=-2.0872198389677914 pbc="F F F"
I        0.00000000       0.00000000       0.00000000       0.00000000       0.00000000      -0.03001533
I        0.00000000       0.00000000       4.11878788       0.00000000       0.00000000       0.03001533
2
Properties=species:S:1:pos:R:3:forces:R:3 energy=-2.0891219968180588 pbc="F F F"
I        0.00000000       0.00000000       0.00000000       0.00000000       0.00000000      -0.03423526
I        0.00000000       0.00000000       4.17757576       0.00000000       0.00000000       0.03423526
2
Properties=species:S:1:pos:R:3:forces:R:3 energy=-2.0912042701271805 pbc="F F F"
I        0.00000000       0.00000000       0.00000000       0.00000000       0.00000000      -0.03633539
I        0.00000000       0.00000000       4.23636364       0.00000000       0.00000000       0.03633539
2
Properties=species:S:1:pos:R:3:forces:R:3 energy=-2.093369586056252 pbc="F F F"
I        0.00000000       0.00000000       0.00000000       0.00000000       0.00000000      -0.03717044
I        0.00000000       0.00000000       4.29515152       0.00000000       0.00000000       0.03717044
2
Properties=species:S:1:pos:R:3:forces:R:3 energy=-2.0955572761171424 pbc="F F F"
I        0.00000000       0.00000000       0.00000000       0.00000000       0.00000000      -0.03712398
I        0.00000000       0.00000000       4.35393939       0.00000000       0.00000000       0.03712398
2
Properties=species:S:1:pos:R:3:forces:R:3 energy=-2.0977157491507494 pbc="F F F"
I        0.00000000       0.00000000       0.00000000       0.00000000       0.00000000      -0.03617200
I        0.00000000       0.00000000       4.41272727       0.00000000       0.00000000       0.03617200
2
Properties=species:S:1:pos:R:3:forces:R:3 energy=-2.0997876222599845 pbc="F F F"
I        0.00000000       0.00000000       0.00000000       0.00000000       0.00000000      -0.03406166
I        0.00000000       0.00000000       4.47151515       0.00000000       0.00000000       0.03406166
2
Properties=species:S:1:pos:R:3:forces:R:3 energy=-2.1016928446077308 pbc="F F F"
I        0.00000000       0.00000000       0.00000000       0.00000000       0.00000000      -0.03051424
I        0.00000000       0.00000000       4.53030303       0.00000000       0.00000000       0.03051424
2
Properties=species:S:1:pos:R:3:forces:R:3 energy=-2.1033437589690114 pbc="F F F"
I        0.00000000       0.00000000       0.00000000       0.00000000       0.00000000      -0.02538865
I        0.00000000       0.00000000       4.58909091       0.00000000       0.00000000       0.02538865
2
Properties=species:S:1:pos:R:3:forces:R:3 energy=-2.1046484958599057 pbc="F F F"
I        0.00000000       0.00000000       0.00000000       0.00000000       0.00000000      -0.01876381
I        0.00000000       0.00000000       4.64787879       0.00000000       0.00000000       0.01876381
2
Properties=species:S:1:pos:R:3:forces:R:3 energy=-2.1055264501543447 pbc="F F F"
I        0.00000000       0.00000000       0.00000000       0.00000000       0.00000000      -0.01093592
I        0.00000000       0.00000000       4.70666667       0.00000000       0.00000000       0.01093592
2
Properties=species:S:1:pos:R:3:forces:R:3 energy=-2.105919722008087 pbc="F F F"
I        0.00000000       0.00000000       0.00000000       0.00000000       0.00000000      -0.00235901
I        0.00000000       0.00000000       4.76545455       0.00000000       0.00000000       0.00235901
2
Properties=species:S:1:pos:R:3:forces:R:3 energy=-2.1057994622935117 pbc="F F F"
I        0.00000000       0.00000000       0.00000000       0.00000000       0.00000000       0.00644160
I        0.00000000       0.00000000       4.82424242       0.00000000       0.00000000      -0.00644160
2
Properties=species:S:1:pos:R:3:forces:R:3 energy=-2.1051688128181216 pbc="F F F"
I        0.00000000       0.00000000       0.00000000       0.00000000       0.00000000       0.01493765
I        0.00000000       0.00000000       4.88303030       0.00000000       0.00000000      -0.01493765
2
Properties=species:S:1:pos:R:3:forces:R:3 energy=-2.1040585039163435 pbc="F F F"
I        0.00000000       0.00000000       0.00000000       0.00000000       0.00000000       0.02265099
I        0.00000000       0.00000000       4.94181818       0.00000000       0.00000000      -0.02265099
2
Properties=species:S:1:pos:R:3:forces:R:3 energy=-2.1025284021704236 pbc="F F F"
I        0.00000000       0.00000000       0.00000000       0.00000000       0.00000000       0.02917340
I        0.00000000       0.00000000       5.00060606       0.00000000       0.00000000      -0.02917340
2
Properties=species:S:1:pos:R:3:forces:R:3 energy=-2.1006577574234377 pbc="F F F"
I        0.00000000       0.00000000       0.00000000       0.00000000       0.00000000       0.03418935
I        0.00000000       0.00000000       5.05939394       0.00000000       0.00000000      -0.03418935
2
Properties=species:S:1:pos:R:3:forces:R:3 energy=-2.0985425310736794 pbc="F F F"
I        0.00000000       0.00000000       0.00000000       0.00000000       0.00000000       0.03748886
I        0.00000000       0.00000000       5.11818182       0.00000000       0.00000000      -0.03748886
2
Properties=species:S:1:pos:R:3:forces:R:3 energy=-2.09628550445549 pbc="F F F"
I        0.00000000       0.00000000       0.00000000       0.00000000       0.00000000       0.03899014
I        0.00000000       0.00000000       5.17696970       0.00000000       0.00000000      -0.03899014
2
Properties=species:S:1:pos:R:3:forces:R:3 energy=-2.09399271681577 pbc="F F F"
I        0.00000000       0.00000000       0.00000000       0.00000000       0.00000000       0.03875150
I        0.00000000       0.00000000       5.23575758       0.00000000       0.00000000      -0.03875150
2
Properties=species:S:1:pos:R:3:forces:R:3 energy=-2.091759645747906 pbc="F F F"
I        0.00000000       0.00000000       0.00000000       0.00000000       0.00000000       0.03697079
I        0.00000000       0.00000000       5.29454545       0.00000000       0.00000000      -0.03697079
2
Properties=species:S:1:pos:R:3:forces:R:3 energy=-2.0896701156772233 pbc="F F F"
I        0.00000000       0.00000000       0.00000000       0.00000000       0.00000000       0.03396314
I        0.00000000       0.00000000       5.35333333       0.00000000       0.00000000      -0.03396314
2
Properties=species:S:1:pos:R:3:forces:R:3 energy=-2.0877831935506506 pbc="F F F"
I        0.00000000       0.00000000       0.00000000       0.00000000       0.00000000       0.03012364
I        0.00000000       0.00000000       5.41212121       0.00000000       0.00000000      -0.03012364
2
Properties=species:S:1:pos:R:3:forces:R:3 energy=-2.0861363017414907 pbc="F F F"
I        0.00000000       0.00000000       0.00000000       0.00000000       0.00000000       0.02587391
I        0.00000000       0.00000000       5.47090909       0.00000000       0.00000000      -0.02587391
2
Properties=species:S:1:pos:R:3:forces:R:3 energy=-2.0847402864950344 pbc="F F F"
I        0.00000000       0.00000000       0.00000000       0.00000000       0.00000000       0.02161040
I        0.00000000       0.00000000       5.52969697       0.00000000       0.00000000      -0.02161040
2
Properties=species:S:1:pos:R:3:forces:R:3 energy=-2.0835884944656344 pbc="F F F"
I        0.00000000       0.00000000       0.00000000       0.00000000       0.00000000       0.01765787
I        0.00000000       0.00000000       5.58848485       0.00000000       0.00000000      -0.01765787
2
Properties=species:S:1:pos:R:3:forces:R:3 energy=-2.0826536891142866 pbc="F F F"
I        0.00000000       0.00000000       0.00000000       0.00000000       0.00000000       0.01424561
I        0.00000000       0.00000000       5.64727273       0.00000000       0.00000000      -0.01424561
2
Properties=species:S:1:pos:R:3:forces:R:3 energy=-2.081900481736877 pbc="F F F"
I        0.00000000       0.00000000       0.00000000       0.00000000       0.00000000       0.01149014
I        0.00000000       0.00000000       5.70606061       0.00000000       0.00000000      -0.01149014
2
Properties=species:S:1:pos:R:3:forces:R:3 energy=-2.081289649133137 pbc="F F F"
I        0.00000000       0.00000000       0.00000000       0.00000000       0.00000000       0.00941183
I        0.00000000       0.00000000       5.76484848       0.00000000       0.00000000      -0.00941183
2
Properties=species:S:1:pos:R:3:forces:R:3 energy=-2.0807821986018213 pbc="F F F"
I        0.00000000       0.00000000       0.00000000       0.00000000       0.00000000       0.00795170
I        0.00000000       0.00000000       5.82363636       0.00000000       0.00000000      -0.00795170
2
Properties=species:S:1:pos:R:3:forces:R:3 energy=-2.0803453291971423 pbc="F F F"
I        0.00000000       0.00000000       0.00000000       0.00000000       0.00000000       0.00699454
I        0.00000000       0.00000000       5.88242424       0.00000000       0.00000000      -0.00699454
2
Properties=species:S:1:pos:R:3:forces:R:3 energy=-2.07995247409839 pbc="F F F"
I        0.00000000       0.00000000       0.00000000       0.00000000       0.00000000       0.00639381
I        0.00000000       0.00000000       5.94121212       0.00000000       0.00000000      -0.00639381
2
Properties=species:S:1:pos:R:3:forces:R:3 energy=-2.07958900325292 pbc="F F F"
I        0.00000000       0.00000000       0.00000000       0.00000000       0.00000000       0.00598860
I        0.00000000       0.00000000       6.00000000       0.00000000       0.00000000      -0.00598860
