2
Properties=species:S:1:pos:R:3:forces:R:3 energy=343552.2617648447 pbc="F F F"
In       0.00000000       0.00000000       0.00000000       0.00000000       0.00000000 -2993914.25000000
In       0.00000000       0.00000000       0.10000000       0.00000000       0.00000000 2993914.25000000
2
Properties=species:S:1:pos:R:3:forces:R:3 energy=155162.16801484473 pbc="F F F"
In       0.00000000       0.00000000       0.00000000       0.00000000       0.00000000 -3052024.50000000
In       0.00000000       0.00000000       0.15959596       0.00000000       0.00000000 3052024.50000000
2
Properties=species:S:1:pos:R:3:forces:R:3 energy=43842.52738984473 pbc="F F F"
In       0.00000000       0.00000000       0.00000000       0.00000000       0.00000000 -947290.56250000
In       0.00000000       0.00000000       0.21919192       0.00000000       0.00000000  947290.56250000
2
Properties=species:S:1:pos:R:3:forces:R:3 energy=4383.085007032228 pbc="F F F"
In       0.00000000       0.00000000       0.00000000       0.00000000       0.00000000 -375809.28125000
In       0.00000000       0.00000000       0.27878788       0.00000000       0.00000000  375809.28125000
2
Properties=species:S:1:pos:R:3:forces:R:3 energy=103.96265443213032 pbc="F F F"
In       0.00000000       0.00000000       0.00000000       0.00000000       0.00000000    -634.92547607
In       0.00000000       0.00000000       0.33838384       0.00000000       0.00000000     634.92547607
2
Properties=species:S:1:pos:R:3:forces:R:3 energy=70.3735049633683 pbc="F F F"
In       0.00000000       0.00000000       0.00000000       0.00000000       0.00000000    -499.09445190
In       0.00000000       0.00000000       0.39797980       0.00000000       0.00000000     499.09445190
2
Properties=species:S:1:pos:R:3:forces:R:3 energy=-6.093403962028223 pbc="F F F"
In       0.00000000       0.00000000       0.00000000       0.00000000       0.00000000   -1280.28051758
In       0.00000000       0.00000000       0.45757576       0.00000000       0.00000000    1280.28051758
2
Properties=species:S:1:pos:R:3:forces:R:3 energy=42.104732857131104 pbc="F F F"
In       0.00000000       0.00000000       0.00000000       0.00000000       0.00000000    1353.88293457
In       0.00000000       0.00000000       0.51717172       0.00000000       0.00000000   -1353.88293457
2
Properties=species:S:1:pos:R:3:forces:R:3 energy=112.93323553433515 pbc="F F F"
In       0.00000000       0.00000000       0.00000000       0.00000000       0.00000000     422.89093018
In       0.00000000       0.00000000       0.57676768       0.00000000       0.00000000    -422.89093018
2
Properties=species:S:1:pos:R:3:forces:R:3 energy=114.37010996199746 pbc="F F F"
In       0.00000000       0.00000000       0.00000000       0.00000000       0.00000000    -183.23446655
In       0.00000000       0.00000000       0.63636364       0.00000000       0.00000000     183.23446655
2
Properties=species:S:1:pos:R:3:forces:R:3 energy=92.21997116720561 pbc="F F F"
In       0.00000000       0.00000000       0.00000000       0.00000000       0.00000000    -522.47814941
In       0.00000000       0.00000000       0.69595960       0.00000000       0.00000000     522.47814941
2
Properties=species:S:1:pos:R:3:forces:R:3 energy=67.18896540603309 pbc="F F F"
In       0.00000000       0.00000000       0.00000000       0.00000000       0.00000000    -316.89968872
In       0.00000000       0.00000000       0.75555556       0.00000000       0.00000000     316.89968872
2
Properties=species:S:1:pos:R:3:forces:R:3 energy=50.919983614991345 pbc="F F F"
In       0.00000000       0.00000000       0.00000000       0.00000000       0.00000000    -205.16462708
In       0.00000000       0.00000000       0.81515152       0.00000000       0.00000000     205.16462708
2
Properties=species:S:1:pos:R:3:forces:R:3 energy=47.54543776670657 pbc="F F F"
In       0.00000000       0.00000000       0.00000000       0.00000000       0.00000000      69.45716858
In       0.00000000       0.00000000       0.87474747       0.00000000       0.00000000     -69.45716858
2
Properties=species:S:1:pos:R:3:forces:R:3 energy=56.307763345011445 pbc="F F F"
In       0.00000000       0.00000000       0.00000000       0.00000000       0.00000000     190.32536316
In       0.00000000       0.00000000       0.93434343       0.00000000       0.00000000    -190.32536316
2
Properties=species:S:1:pos:R:3:forces:R:3 energy=66.36202399806328 pbc="F F F"
In       0.00000000       0.00000000       0.00000000       0.00000000       0.00000000     135.28622437
In       0.00000000       0.00000000       0.99393939       0.00000000       0.00000000    -135.28622437
2
Properties=species:S:1:pos:R:3:forces:R:3 energy=71.505411383749 pbc="F F F"
In       0.00000000       0.00000000       0.00000000       0.00000000       0.00000000      17.92739868
In       0.00000000       0.00000000       1.05353535       0.00000000       0.00000000     -17.92739868
2
Properties=species:S:1:pos:R:3:forces:R:3 energy=67.50654889213325 pbc="F F F"
In       0.00000000       0.00000000       0.00000000       0.00000000       0.00000000    -156.53596497
In       0.00000000       0.00000000       1.11313131       0.00000000       0.00000000     156.53596497
2
Properties=species:S:1:pos:R:3:forces:R:3 energy=58.123825093188294 pbc="F F F"
In       0.00000000       0.00000000       0.00000000       0.00000000       0.00000000    -122.57172394
In       0.00000000       0.00000000       1.17272727       0.00000000       0.00000000     122.57172394
2
Properties=species:S:1:pos:R:3:forces:R:3 energy=53.13989765455466 pbc="F F F"
In       0.00000000       0.00000000       0.00000000       0.00000000       0.00000000     -76.16469574
In       0.00000000       0.00000000       1.23232323       0.00000000       0.00000000      76.16469574
2
Properties=species:S:1:pos:R:3:forces:R:3 energy=47.609599117091804 pbc="F F F"
In       0.00000000       0.00000000       0.00000000       0.00000000       0.00000000    -101.06380463
In       0.00000000       0.00000000       1.29191919       0.00000000       0.00000000     101.06380463
2
Properties=species:S:1:pos:R:3:forces:R:3 energy=41.578560959183235 pbc="F F F"
In       0.00000000       0.00000000       0.00000000       0.00000000       0.00000000    -100.30258942
In       0.00000000       0.00000000       1.35151515       0.00000000       0.00000000     100.30258942
2
Properties=species:S:1:pos:R:3:forces:R:3 energy=35.935619182846025 pbc="F F F"
In       0.00000000       0.00000000       0.00000000       0.00000000       0.00000000     -86.26525879
In       0.00000000       0.00000000       1.41111111       0.00000000       0.00000000      86.26525879
2
Properties=species:S:1:pos:R:3:forces:R:3 energy=31.138735928751135 pbc="F F F"
In       0.00000000       0.00000000       0.00000000       0.00000000       0.00000000     -76.60251617
In       0.00000000       0.00000000       1.47070707       0.00000000       0.00000000      76.60251617
2
Properties=species:S:1:pos:R:3:forces:R:3 energy=26.529876042123302 pbc="F F F"
In       0.00000000       0.00000000       0.00000000       0.00000000       0.00000000     -78.12867737
In       0.00000000       0.00000000       1.53030303       0.00000000       0.00000000      78.12867737
2
Properties=species:S:1:pos:R:3:forces:R:3 energy=22.05937039976746 pbc="F F F"
In       0.00000000       0.00000000       0.00000000       0.00000000       0.00000000     -71.82000732
In       0.00000000       0.00000000       1.58989899       0.00000000       0.00000000      71.82000732
2
Properties=species:S:1:pos:R:3:forces:R:3 energy=17.86550574748306 pbc="F F F"
In       0.00000000       0.00000000       0.00000000       0.00000000       0.00000000     -67.93846893
In       0.00000000       0.00000000       1.64949495       0.00000000       0.00000000      67.93846893
2
Properties=species:S:1:pos:R:3:forces:R:3 energy=14.027124438425373 pbc="F F F"
In       0.00000000       0.00000000       0.00000000       0.00000000       0.00000000     -60.24338150
In       0.00000000       0.00000000       1.70909091       0.00000000       0.00000000      60.24338150
2
Properties=species:S:1:pos:R:3:forces:R:3 energy=10.746939688030329 pbc="F F F"
In       0.00000000       0.00000000       0.00000000       0.00000000       0.00000000     -50.37050629
In       0.00000000       0.00000000       1.76868687       0.00000000       0.00000000      50.37050629
2
Properties=species:S:1:pos:R:3:forces:R:3 energy=7.951301373777164 pbc="F F F"
In       0.00000000       0.00000000       0.00000000       0.00000000       0.00000000     -43.38260651
In       0.00000000       0.00000000       1.82828283       0.00000000       0.00000000      43.38260651
2
Properties=species:S:1:pos:R:3:forces:R:3 energy=5.603516656098585 pbc="F F F"
In       0.00000000       0.00000000       0.00000000       0.00000000       0.00000000     -35.54479218
In       0.00000000       0.00000000       1.88787879       0.00000000       0.00000000      35.54479218
2
Properties=species:S:1:pos:R:3:forces:R:3 energy=3.698596208746438 pbc="F F F"
In       0.00000000       0.00000000       0.00000000       0.00000000       0.00000000     -28.45645332
In       0.00000000       0.00000000       1.94747475       0.00000000       0.00000000      28.45645332
2
Properties=species:S:1:pos:R:3:forces:R:3 energy=2.191242732157916 pbc="F F F"
In       0.00000000       0.00000000       0.00000000       0.00000000       0.00000000     -22.29477501
In       0.00000000       0.00000000       2.00707071       0.00000000       0.00000000      22.29477501
2
Properties=species:S:1:pos:R:3:forces:R:3 energy=1.0307358546021486 pbc="F F F"
In       0.00000000       0.00000000       0.00000000       0.00000000       0.00000000     -16.83057976
In       0.00000000       0.00000000       2.06666667       0.00000000       0.00000000      16.83057976
2
Properties=species:S:1:pos:R:3:forces:R:3 energy=0.15191284286398365 pbc="F F F"
In       0.00000000       0.00000000       0.00000000       0.00000000       0.00000000     -12.89671040
In       0.00000000       0.00000000       2.12626263       0.00000000       0.00000000      12.89671040
2
Properties=species:S:1:pos:R:3:forces:R:3 energy=-0.5287697257263183 pbc="F F F"
In       0.00000000       0.00000000       0.00000000       0.00000000       0.00000000     -10.11655807
In       0.00000000       0.00000000       2.18585859       0.00000000       0.00000000      10.11655807
2
Properties=species:S:1:pos:R:3:forces:R:3 energy=-1.06753057515007 pbc="F F F"
In       0.00000000       0.00000000       0.00000000       0.00000000       0.00000000      -8.04859638
In       0.00000000       0.00000000       2.24545455       0.00000000       0.00000000       8.04859638
2
Properties=species:S:1:pos:R:3:forces:R:3 energy=-1.4987893798780363 pbc="F F F"
In       0.00000000       0.00000000       0.00000000       0.00000000       0.00000000      -6.48901558
In       0.00000000       0.00000000       2.30505051       0.00000000       0.00000000       6.48901558
2
Properties=species:S:1:pos:R:3:forces:R:3 energy=-1.8446546765752898 pbc="F F F"
In       0.00000000       0.00000000       0.00000000       0.00000000       0.00000000      -5.14195013
In       0.00000000       0.00000000       2.36464646       0.00000000       0.00000000       5.14195013
2
Properties=species:S:1:pos:R:3:forces:R:3 energy=-2.1159367454207896 pbc="F F F"
In       0.00000000       0.00000000       0.00000000       0.00000000       0.00000000      -3.99806285
In       0.00000000       0.00000000       2.42424242       0.00000000       0.00000000       3.99806285
2
Properties=species:S:1:pos:R:3:forces:R:3 energy=-2.324663110649227 pbc="F F F"
In       0.00000000       0.00000000       0.00000000       0.00000000       0.00000000      -3.03057694
In       0.00000000       0.00000000       2.48383838       0.00000000       0.00000000       3.03057694
2
Properties=species:S:1:pos:R:3:forces:R:3 energy=-2.4793075962178612 pbc="F F F"
In       0.00000000       0.00000000       0.00000000       0.00000000       0.00000000      -2.17548823
In       0.00000000       0.00000000       2.54343434       0.00000000       0.00000000       2.17548823
2
Properties=species:S:1:pos:R:3:forces:R:3 energy=-2.5866319826171935 pbc="F F F"
In       0.00000000       0.00000000       0.00000000       0.00000000       0.00000000      -1.45402050
In       0.00000000       0.00000000       2.60303030       0.00000000       0.00000000       1.45402050
2
Properties=species:S:1:pos:R:3:forces:R:3 energy=-2.655806543656507 pbc="F F F"
In       0.00000000       0.00000000       0.00000000       0.00000000       0.00000000      -0.88943040
In       0.00000000       0.00000000       2.66262626       0.00000000       0.00000000       0.88943040
2
Properties=species:S:1:pos:R:3:forces:R:3 energy=-2.694458694170727 pbc="F F F"
In       0.00000000       0.00000000       0.00000000       0.00000000       0.00000000      -0.41751617
In       0.00000000       0.00000000       2.72222222       0.00000000       0.00000000       0.41751617
2
Properties=species:S:1:pos:R:3:forces:R:3 energy=-2.7066447513286365 pbc="F F F"
In       0.00000000       0.00000000       0.00000000       0.00000000       0.00000000      -0.00249101
In       0.00000000       0.00000000       2.78181818       0.00000000       0.00000000       0.00249101
2
Properties=species:S:1:pos:R:3:forces:R:3 energy=-2.6964872524753853 pbc="F F F"
In       0.00000000       0.00000000       0.00000000       0.00000000       0.00000000       0.32609618
In       0.00000000       0.00000000       2.84141414       0.00000000       0.00000000      -0.32609618
2
Properties=species:S:1:pos:R:3:forces:R:3 energy=-2.669929243869183 pbc="F F F"
In       0.00000000       0.00000000       0.00000000       0.00000000       0.00000000       0.54764324
In       0.00000000       0.00000000       2.90101010       0.00000000       0.00000000      -0.54764324
2
Properties=species:S:1:pos:R:3:forces:R:3 energy=-2.6330528324842275 pbc="F F F"
In       0.00000000       0.00000000       0.00000000       0.00000000       0.00000000       0.67721516
In       0.00000000       0.00000000       2.96060606       0.00000000       0.00000000      -0.67721516
2
Properties=species:S:1:pos:R:3:forces:R:3 energy=-2.590349834526328 pbc="F F F"
In       0.00000000       0.00000000       0.00000000       0.00000000       0.00000000       0.74915874
In       0.00000000       0.00000000       3.02020202       0.00000000       0.00000000      -0.74915874
2
Properties=species:S:1:pos:R:3:forces:R:3 energy=-2.544329840151885 pbc="F F F"
In       0.00000000       0.00000000       0.00000000       0.00000000       0.00000000       0.79167634
In       0.00000000       0.00000000       3.07979798       0.00000000       0.00000000      -0.79167634
2
Properties=species:S:1:pos:R:3:forces:R:3 energy=-2.4963600424495636 pbc="F F F"
In       0.00000000       0.00000000       0.00000000       0.00000000       0.00000000       0.81524998
In       0.00000000       0.00000000       3.13939394       0.00000000       0.00000000      -0.81524998
2
Properties=species:S:1:pos:R:3:forces:R:3 energy=-2.447500022290003 pbc="F F F"
In       0.00000000       0.00000000       0.00000000       0.00000000       0.00000000       0.82161069
In       0.00000000       0.00000000       3.19898990       0.00000000       0.00000000      -0.82161069
2
Properties=species:S:1:pos:R:3:forces:R:3 energy=-2.3987617092763185 pbc="F F F"
In       0.00000000       0.00000000       0.00000000       0.00000000       0.00000000       0.81127357
In       0.00000000       0.00000000       3.25858586       0.00000000       0.00000000      -0.81127357
2
Properties=species:S:1:pos:R:3:forces:R:3 energy=-2.35111453546754 pbc="F F F"
In       0.00000000       0.00000000       0.00000000       0.00000000       0.00000000       0.78534943
In       0.00000000       0.00000000       3.31818182       0.00000000       0.00000000      -0.78534943
2
Properties=species:S:1:pos:R:3:forces:R:3 energy=-2.3053966268358224 pbc="F F F"
In       0.00000000       0.00000000       0.00000000       0.00000000       0.00000000       0.74731892
In       0.00000000       0.00000000       3.37777778       0.00000000       0.00000000      -0.74731892
2
Properties=species:S:1:pos:R:3:forces:R:3 energy=-2.2621635327686294 pbc="F F F"
In       0.00000000       0.00000000       0.00000000       0.00000000       0.00000000       0.70306104
In       0.00000000       0.00000000       3.43737374       0.00000000       0.00000000      -0.70306104
2
Properties=species:S:1:pos:R:3:forces:R:3 energy=-2.2215993168381822 pbc="F F F"
In       0.00000000       0.00000000       0.00000000       0.00000000       0.00000000       0.65861821
In       0.00000000       0.00000000       3.49696970       0.00000000       0.00000000      -0.65861821
2
Properties=species:S:1:pos:R:3:forces:R:3 energy=-2.183585870991447 pbc="F F F"
In       0.00000000       0.00000000       0.00000000       0.00000000       0.00000000       0.61787015
In       0.00000000       0.00000000       3.55656566       0.00000000       0.00000000      -0.61787015
2
Properties=species:S:1:pos:R:3:forces:R:3 energy=-2.1478584937738465 pbc="F F F"
In       0.00000000       0.00000000       0.00000000       0.00000000       0.00000000       0.58188230
In       0.00000000       0.00000000       3.61616162       0.00000000       0.00000000      -0.58188230
2
Properties=species:S:1:pos:R:3:forces:R:3 energy=-2.114152479225833 pbc="F F F"
In       0.00000000       0.00000000       0.00000000       0.00000000       0.00000000       0.54983163
In       0.00000000       0.00000000       3.67575758       0.00000000       0.00000000      -0.54983163
2
Properties=species:S:1:pos:R:3:forces:R:3 energy=-2.082270660947566 pbc="F F F"
In       0.00000000       0.00000000       0.00000000       0.00000000       0.00000000       0.52046400
In       0.00000000       0.00000000       3.73535354       0.00000000       0.00000000      -0.52046400
2
Properties=species:S:1:pos:R:3:forces:R:3 energy=-2.052078722632356 pbc="F F F"
In       0.00000000       0.00000000       0.00000000       0.00000000       0.00000000       0.49304169
In       0.00000000       0.00000000       3.79494949       0.00000000       0.00000000      -0.49304169
2
Properties=species:S:1:pos:R:3:forces:R:3 energy=-2.0234681811419337 pbc="F F F"
In       0.00000000       0.00000000       0.00000000       0.00000000       0.00000000       0.46742418
In       0.00000000       0.00000000       3.85454545       0.00000000       0.00000000      -0.46742418
2
Properties=species:S:1:pos:R:3:forces:R:3 energy=-1.9963294987402844 pbc="F F F"
In       0.00000000       0.00000000       0.00000000       0.00000000       0.00000000       0.44363686
In       0.00000000       0.00000000       3.91414141       0.00000000       0.00000000      -0.44363686
2
Properties=species:S:1:pos:R:3:forces:R:3 energy=-1.9705569825302256 pbc="F F F"
In       0.00000000       0.00000000       0.00000000       0.00000000       0.00000000       0.42150357
In       0.00000000       0.00000000       3.97373737       0.00000000       0.00000000      -0.42150357
2
Properties=species:S:1:pos:R:3:forces:R:3 energy=-1.9460640777688136 pbc="F F F"
In       0.00000000       0.00000000       0.00000000       0.00000000       0.00000000       0.40065542
In       0.00000000       0.00000000       4.03333333       0.00000000       0.00000000      -0.40065542
2
Properties=species:S:1:pos:R:3:forces:R:3 energy=-1.9227828701995668 pbc="F F F"
In       0.00000000       0.00000000       0.00000000       0.00000000       0.00000000       0.38078061
In       0.00000000       0.00000000       4.09292929       0.00000000       0.00000000      -0.38078061
2
Properties=species:S:1:pos:R:3:forces:R:3 energy=-1.900659521925487 pbc="F F F"
In       0.00000000       0.00000000       0.00000000       0.00000000       0.00000000       0.36180288
In       0.00000000       0.00000000       4.15252525       0.00000000       0.00000000      -0.36180288
2
Properties=species:S:1:pos:R:3:forces:R:3 energy=-1.8796386354893104 pbc="F F F"
In       0.00000000       0.00000000       0.00000000       0.00000000       0.00000000       0.34385324
In       0.00000000       0.00000000       4.21212121       0.00000000       0.00000000      -0.34385324
2
Properties=species:S:1:pos:R:3:forces:R:3 energy=-1.859651624384192 pbc="F F F"
In       0.00000000       0.00000000       0.00000000       0.00000000       0.00000000       0.32711658
In       0.00000000       0.00000000       4.27171717       0.00000000       0.00000000      -0.32711658
2
Properties=species:S:1:pos:R:3:forces:R:3 energy=-1.8406226600149758 pbc="F F F"
In       0.00000000       0.00000000       0.00000000       0.00000000       0.00000000       0.31172815
In       0.00000000       0.00000000       4.33131313       0.00000000       0.00000000      -0.31172815
2
Properties=species:S:1:pos:R:3:forces:R:3 energy=-1.8224687192155256 pbc="F F F"
In       0.00000000       0.00000000       0.00000000       0.00000000       0.00000000       0.29773244
In       0.00000000       0.00000000       4.39090909       0.00000000       0.00000000      -0.29773244
2
Properties=species:S:1:pos:R:3:forces:R:3 energy=-1.805107826696769 pbc="F F F"
In       0.00000000       0.00000000       0.00000000       0.00000000       0.00000000       0.28507075
In       0.00000000       0.00000000       4.45050505       0.00000000       0.00000000      -0.28507075
2
Properties=species:S:1:pos:R:3:forces:R:3 energy=-1.7884676983041647 pbc="F F F"
In       0.00000000       0.00000000       0.00000000       0.00000000       0.00000000       0.27356339
In       0.00000000       0.00000000       4.51010101       0.00000000       0.00000000      -0.27356339
2
Properties=species:S:1:pos:R:3:forces:R:3 energy=-1.772483856675743 pbc="F F F"
In       0.00000000       0.00000000       0.00000000       0.00000000       0.00000000       0.26291004
In       0.00000000       0.00000000       4.56969697       0.00000000       0.00000000      -0.26291004
2
Properties=species:S:1:pos:R:3:forces:R:3 energy=-1.7571199276676328 pbc="F F F"
In       0.00000000       0.00000000       0.00000000       0.00000000       0.00000000       0.25274992
In       0.00000000       0.00000000       4.62929293       0.00000000       0.00000000      -0.25274992
2
Properties=species:S:1:pos:R:3:forces:R:3 energy=-1.7423560410389793 pbc="F F F"
In       0.00000000       0.00000000       0.00000000       0.00000000       0.00000000       0.24276753
In       0.00000000       0.00000000       4.68888889       0.00000000       0.00000000      -0.24276753
2
Properties=species:S:1:pos:R:3:forces:R:3 energy=-1.7281851623064157 pbc="F F F"
In       0.00000000       0.00000000       0.00000000       0.00000000       0.00000000       0.23280258
In       0.00000000       0.00000000       4.74848485       0.00000000       0.00000000      -0.23280258
2
Properties=species:S:1:pos:R:3:forces:R:3 energy=-1.7146058483198472 pbc="F F F"
In       0.00000000       0.00000000       0.00000000       0.00000000       0.00000000       0.22291756
In       0.00000000       0.00000000       4.80808081       0.00000000       0.00000000      -0.22291756
2
Properties=species:S:1:pos:R:3:forces:R:3 energy=-1.7016080593571252 pbc="F F F"
In       0.00000000       0.00000000       0.00000000       0.00000000       0.00000000       0.21336597
In       0.00000000       0.00000000       4.86767677       0.00000000       0.00000000      -0.21336597
2
Properties=species:S:1:pos:R:3:forces:R:3 energy=-1.6891607115046972 pbc="F F F"
In       0.00000000       0.00000000       0.00000000       0.00000000       0.00000000       0.20448638
In       0.00000000       0.00000000       4.92727273       0.00000000       0.00000000      -0.20448638
2
Properties=species:S:1:pos:R:3:forces:R:3 energy=-1.6772160410519392 pbc="F F F"
In       0.00000000       0.00000000       0.00000000       0.00000000       0.00000000       0.19651282
In       0.00000000       0.00000000       4.98686869       0.00000000       0.00000000      -0.19651282
2
Properties=species:S:1:pos:R:3:forces:R:3 energy=-1.6657223650528319 pbc="F F F"
In       0.00000000       0.00000000       0.00000000       0.00000000       0.00000000       0.18942194
In       0.00000000       0.00000000       5.04646465       0.00000000       0.00000000      -0.18942194
2
Properties=species:S:1:pos:R:3:forces:R:3 energy=-1.6546292029896352 pbc="F F F"
In       0.00000000       0.00000000       0.00000000       0.00000000       0.00000000       0.18284820
In       0.00000000       0.00000000       5.10606061       0.00000000       0.00000000      -0.18284820
2
Properties=species:S:1:pos:R:3:forces:R:3 energy=-1.6439290317024533 pbc="F F F"
In       0.00000000       0.00000000       0.00000000       0.00000000       0.00000000       0.17610365
In       0.00000000       0.00000000       5.16565657       0.00000000       0.00000000      -0.17610365
2
Properties=species:S:1:pos:R:3:forces:R:3 energy=-1.6336586176982228 pbc="F F F"
In       0.00000000       0.00000000       0.00000000       0.00000000       0.00000000       0.16831854
In       0.00000000       0.00000000       5.22525253       0.00000000       0.00000000      -0.16831854
2
Properties=species:S:1:pos:R:3:forces:R:3 energy=-1.6239054132706603 pbc="F F F"
In       0.00000000       0.00000000       0.00000000       0.00000000       0.00000000       0.15864798
In       0.00000000       0.00000000       5.28484848       0.00000000       0.00000000      -0.15864798
2
Properties=species:S:1:pos:R:3:forces:R:3 energy=-1.6147987112541693 pbc="F F F"
In       0.00000000       0.00000000       0.00000000       0.00000000       0.00000000       0.14649460
In       0.00000000       0.00000000       5.34444444       0.00000000       0.00000000      -0.14649460
2
Properties=species:S:1:pos:R:3:forces:R:3 energy=-1.6064974524141744 pbc="F F F"
In       0.00000000       0.00000000       0.00000000       0.00000000       0.00000000       0.13167031
In       0.00000000       0.00000000       5.40404040       0.00000000       0.00000000      -0.13167031
2
Properties=species:S:1:pos:R:3:forces:R:3 energy=-1.5991497212151609 pbc="F F F"
In       0.00000000       0.00000000       0.00000000       0.00000000       0.00000000       0.11450027
In       0.00000000       0.00000000       5.46363636       0.00000000       0.00000000      -0.11450027
2
Properties=species:S:1:pos:R:3:forces:R:3 energy=-1.5928817294647941 pbc="F F F"
In       0.00000000       0.00000000       0.00000000       0.00000000       0.00000000       0.09579210
In       0.00000000       0.00000000       5.52323232       0.00000000       0.00000000      -0.09579210
2
Properties=species:S:1:pos:R:3:forces:R:3 energy=-1.5877427970590339 pbc="F F F"
In       0.00000000       0.00000000       0.00000000       0.00000000       0.00000000       0.07670803
In       0.00000000       0.00000000       5.58282828       0.00000000       0.00000000      -0.07670803
2
Properties=species:S:1:pos:R:3:forces:R:3 energy=-1.5837184143188303 pbc="F F F"
In       0.00000000       0.00000000       0.00000000       0.00000000       0.00000000       0.05859306
In       0.00000000       0.00000000       5.64242424       0.00000000       0.00000000      -0.05859306
2
Properties=species:S:1:pos:R:3:forces:R:3 energy=-1.5807131645514503 pbc="F F F"
In       0.00000000       0.00000000       0.00000000       0.00000000       0.00000000       0.04269930
In       0.00000000       0.00000000       5.70202020       0.00000000       0.00000000      -0.04269930
2
Properties=species:S:1:pos:R:3:forces:R:3 energy=-1.5785655107541126 pbc="F F F"
In       0.00000000       0.00000000       0.00000000       0.00000000       0.00000000       0.03001525
In       0.00000000       0.00000000       5.76161616       0.00000000       0.00000000      -0.03001525
2
Properties=species:S:1:pos:R:3:forces:R:3 energy=-1.5770625648946057 pbc="F F F"
In       0.00000000       0.00000000       0.00000000       0.00000000       0.00000000       0.02102008
In       0.00000000       0.00000000       5.82121212       0.00000000       0.00000000      -0.02102008
2
Properties=species:S:1:pos:R:3:forces:R:3 energy=-1.5759883387471965 pbc="F F F"
In       0.00000000       0.00000000       0.00000000       0.00000000       0.00000000       0.01562934
In       0.00000000       0.00000000       5.88080808       0.00000000       0.00000000      -0.01562934
2
Properties=species:S:1:pos:R:3:forces:R:3 energy=-1.575142332622245 pbc="F F F"
In       0.00000000       0.00000000       0.00000000       0.00000000       0.00000000       0.01311409
In       0.00000000       0.00000000       5.94040404       0.00000000       0.00000000      -0.01311409
2
Properties=species:S:1:pos:R:3:forces:R:3 energy=-1.5743920191318281 pbc="F F F"
In       0.00000000       0.00000000       0.00000000       0.00000000       0.00000000       0.01224228
In       0.00000000       0.00000000       6.00000000       0.00000000       0.00000000      -0.01224228
