2
Properties=species:S:1:pos:R:3:forces:R:3 energy=49864919.95286939 pbc="F F F"
Ir       0.00000000       0.00000000       0.00000000       0.00000000       0.00000000 -449405920.00000000
Ir       0.00000000       0.00000000       0.18000000       0.00000000       0.00000000 449405920.00000000
2
Properties=species:S:1:pos:R:3:forces:R:3 energy=26689841.952869397 pbc="F F F"
Ir       0.00000000       0.00000000       0.00000000       0.00000000       0.00000000 -327851616.00000000
Ir       0.00000000       0.00000000       0.23878788       0.00000000       0.00000000 327851616.00000000
2
Properties=species:S:1:pos:R:3:forces:R:3 energy=11709625.952869399 pbc="F F F"
Ir       0.00000000       0.00000000       0.00000000       0.00000000       0.00000000 -184865680.00000000
Ir       0.00000000       0.00000000       0.29757576       0.00000000       0.00000000 184865680.00000000
2
Properties=species:S:1:pos:R:3:forces:R:3 energy=4155544.952869402 pbc="F F F"
Ir       0.00000000       0.00000000       0.00000000       0.00000000       0.00000000 -80416712.00000000
Ir       0.00000000       0.00000000       0.35636364       0.00000000       0.00000000 80416712.00000000
2
Properties=species:S:1:pos:R:3:forces:R:3 energy=1182738.702869408 pbc="F F F"
Ir       0.00000000       0.00000000       0.00000000       0.00000000       0.00000000 -28499526.00000000
Ir       0.00000000       0.00000000       0.41515152       0.00000000       0.00000000 28499526.00000000
2
Properties=species:S:1:pos:R:3:forces:R:3 energy=230613.40599442084 pbc="F F F"
Ir       0.00000000       0.00000000       0.00000000       0.00000000       0.00000000 -7483132.50000000
Ir       0.00000000       0.00000000       0.47393939       0.00000000       0.00000000 7483132.50000000
2
Properties=species:S:1:pos:R:3:forces:R:3 energy=21688.894275693026 pbc="F F F"
Ir       0.00000000       0.00000000       0.00000000       0.00000000       0.00000000 -1133525.12500000
Ir       0.00000000       0.00000000       0.53272727       0.00000000       0.00000000 1133525.12500000
2
Properties=species:S:1:pos:R:3:forces:R:3 energy=-773.8842276837612 pbc="F F F"
Ir       0.00000000       0.00000000       0.00000000       0.00000000       0.00000000  -35289.41796875
Ir       0.00000000       0.00000000       0.59151515       0.00000000       0.00000000   35289.41796875
2
Properties=species:S:1:pos:R:3:forces:R:3 energy=-363.4589651692329 pbc="F F F"
Ir       0.00000000       0.00000000       0.00000000       0.00000000       0.00000000    3653.54394531
Ir       0.00000000       0.00000000       0.65030303       0.00000000       0.00000000   -3653.54394531
2
Properties=species:S:1:pos:R:3:forces:R:3 energy=-248.85403036597629 pbc="F F F"
Ir       0.00000000       0.00000000       0.00000000       0.00000000       0.00000000     985.13275146
Ir       0.00000000       0.00000000       0.70909091       0.00000000       0.00000000    -985.13275146
2
Properties=species:S:1:pos:R:3:forces:R:3 energy=-192.6216693614058 pbc="F F F"
Ir       0.00000000       0.00000000       0.00000000       0.00000000       0.00000000     502.24679565
Ir       0.00000000       0.00000000       0.76787879       0.00000000       0.00000000    -502.24679565
2
Properties=species:S:1:pos:R:3:forces:R:3 energy=-190.027156184366 pbc="F F F"
Ir       0.00000000       0.00000000       0.00000000       0.00000000       0.00000000    -244.17109680
Ir       0.00000000       0.00000000       0.82666667       0.00000000       0.00000000     244.17109680
2
Properties=species:S:1:pos:R:3:forces:R:3 energy=-185.062998737749 pbc="F F F"
Ir       0.00000000       0.00000000       0.00000000       0.00000000       0.00000000     223.18966675
Ir       0.00000000       0.00000000       0.88545455       0.00000000       0.00000000    -223.18966675
2
Properties=species:S:1:pos:R:3:forces:R:3 energy=-150.88793416299035 pbc="F F F"
Ir       0.00000000       0.00000000       0.00000000       0.00000000       0.00000000    1458.93493652
Ir       0.00000000       0.00000000       0.94424242       0.00000000       0.00000000   -1458.93493652
2
Properties=species:S:1:pos:R:3:forces:R:3 energy=-72.88162399163818 pbc="F F F"
Ir       0.00000000       0.00000000       0.00000000       0.00000000       0.00000000    1044.17150879
Ir       0.00000000       0.00000000       1.00303030       0.00000000       0.00000000   -1044.17150879
2
Properties=species:S:1:pos:R:3:forces:R:3 energy=-26.939381426443337 pbc="F F F"
Ir       0.00000000       0.00000000       0.00000000       0.00000000       0.00000000     592.29998779
Ir       0.00000000       0.00000000       1.06181818       0.00000000       0.00000000    -592.29998779
2
Properties=species:S:1:pos:R:3:forces:R:3 energy=0.8527416486970016 pbc="F F F"
Ir       0.00000000       0.00000000       0.00000000       0.00000000       0.00000000     358.96719360
Ir       0.00000000       0.00000000       1.12060606       0.00000000       0.00000000    -358.96719360
2
Properties=species:S:1:pos:R:3:forces:R:3 energy=14.177177487661007 pbc="F F F"
Ir       0.00000000       0.00000000       0.00000000       0.00000000       0.00000000      80.71343231
Ir       0.00000000       0.00000000       1.17939394       0.00000000       0.00000000     -80.71343231
2
Properties=species:S:1:pos:R:3:forces:R:3 energy=14.531969239450433 pbc="F F F"
Ir       0.00000000       0.00000000       0.00000000       0.00000000       0.00000000     -40.94246674
Ir       0.00000000       0.00000000       1.23818182       0.00000000       0.00000000      40.94246674
2
Properties=species:S:1:pos:R:3:forces:R:3 energy=11.422602536935738 pbc="F F F"
Ir       0.00000000       0.00000000       0.00000000       0.00000000       0.00000000     -63.71812820
Ir       0.00000000       0.00000000       1.29696970       0.00000000       0.00000000      63.71812820
2
Properties=species:S:1:pos:R:3:forces:R:3 energy=7.465301795770236 pbc="F F F"
Ir       0.00000000       0.00000000       0.00000000       0.00000000       0.00000000     -68.14294434
Ir       0.00000000       0.00000000       1.35575758       0.00000000       0.00000000      68.14294434
2
Properties=species:S:1:pos:R:3:forces:R:3 energy=3.5431600355871256 pbc="F F F"
Ir       0.00000000       0.00000000       0.00000000       0.00000000       0.00000000     -63.16388321
Ir       0.00000000       0.00000000       1.41454545       0.00000000       0.00000000      63.16388321
2
Properties=species:S:1:pos:R:3:forces:R:3 energy=0.2719735039498766 pbc="F F F"
Ir       0.00000000       0.00000000       0.00000000       0.00000000       0.00000000     -46.99858856
Ir       0.00000000       0.00000000       1.47333333       0.00000000       0.00000000      46.99858856
2
Properties=species:S:1:pos:R:3:forces:R:3 energy=-2.0206352207795044 pbc="F F F"
Ir       0.00000000       0.00000000       0.00000000       0.00000000       0.00000000     -32.63802719
Ir       0.00000000       0.00000000       1.53212121       0.00000000       0.00000000      32.63802719
2
Properties=species:S:1:pos:R:3:forces:R:3 energy=-3.6555934861023953 pbc="F F F"
Ir       0.00000000       0.00000000       0.00000000       0.00000000       0.00000000     -23.19199562
Ir       0.00000000       0.00000000       1.59090909       0.00000000       0.00000000      23.19199562
2
Properties=species:S:1:pos:R:3:forces:R:3 energy=-4.803947447667531 pbc="F F F"
Ir       0.00000000       0.00000000       0.00000000       0.00000000       0.00000000     -16.47205544
Ir       0.00000000       0.00000000       1.64969697       0.00000000       0.00000000      16.47205544
2
Properties=species:S:1:pos:R:3:forces:R:3 energy=-5.651642337570818 pbc="F F F"
Ir       0.00000000       0.00000000       0.00000000       0.00000000       0.00000000     -12.59841061
Ir       0.00000000       0.00000000       1.70848485       0.00000000       0.00000000      12.59841061
2
Properties=species:S:1:pos:R:3:forces:R:3 energy=-6.303156991871829 pbc="F F F"
Ir       0.00000000       0.00000000       0.00000000       0.00000000       0.00000000      -9.79804325
Ir       0.00000000       0.00000000       1.76727273       0.00000000       0.00000000       9.79804325
2
Properties=species:S:1:pos:R:3:forces:R:3 energy=-6.843655582070266 pbc="F F F"
Ir       0.00000000       0.00000000       0.00000000       0.00000000       0.00000000      -8.78973675
Ir       0.00000000       0.00000000       1.82606061       0.00000000       0.00000000       8.78973675
2
Properties=species:S:1:pos:R:3:forces:R:3 energy=-7.317216999930856 pbc="F F F"
Ir       0.00000000       0.00000000       0.00000000       0.00000000       0.00000000      -7.25676680
Ir       0.00000000       0.00000000       1.88484848       0.00000000       0.00000000       7.25676680
2
Properties=species:S:1:pos:R:3:forces:R:3 energy=-7.688489401696027 pbc="F F F"
Ir       0.00000000       0.00000000       0.00000000       0.00000000       0.00000000      -5.25821161
Ir       0.00000000       0.00000000       1.94363636       0.00000000       0.00000000       5.25821161
2
Properties=species:S:1:pos:R:3:forces:R:3 energy=-7.93139723999337 pbc="F F F"
Ir       0.00000000       0.00000000       0.00000000       0.00000000       0.00000000      -3.05498576
Ir       0.00000000       0.00000000       2.00242424       0.00000000       0.00000000       3.05498576
2
Properties=species:S:1:pos:R:3:forces:R:3 energy=-8.05994445775507 pbc="F F F"
Ir       0.00000000       0.00000000       0.00000000       0.00000000       0.00000000      -1.40379524
Ir       0.00000000       0.00000000       2.06121212       0.00000000       0.00000000       1.40379524
2
Properties=species:S:1:pos:R:3:forces:R:3 energy=-8.09988551162983 pbc="F F F"
Ir       0.00000000       0.00000000       0.00000000       0.00000000       0.00000000       0.03019664
Ir       0.00000000       0.00000000       2.12000000       0.00000000       0.00000000      -0.03019664
2
Properties=species:S:1:pos:R:3:forces:R:3 energy=-8.06343649987938 pbc="F F F"
Ir       0.00000000       0.00000000       0.00000000       0.00000000       0.00000000       1.10564935
Ir       0.00000000       0.00000000       2.17878788       0.00000000       0.00000000      -1.10564935
2
Properties=species:S:1:pos:R:3:forces:R:3 energy=-7.978176010135815 pbc="F F F"
Ir       0.00000000       0.00000000       0.00000000       0.00000000       0.00000000       1.76307857
Ir       0.00000000       0.00000000       2.23757576       0.00000000       0.00000000      -1.76307857
2
Properties=species:S:1:pos:R:3:forces:R:3 energy=-7.862366238753329 pbc="F F F"
Ir       0.00000000       0.00000000       0.00000000       0.00000000       0.00000000       2.11549568
Ir       0.00000000       0.00000000       2.29636364       0.00000000       0.00000000      -2.11549568
2
Properties=species:S:1:pos:R:3:forces:R:3 energy=-7.732175849536985 pbc="F F F"
Ir       0.00000000       0.00000000       0.00000000       0.00000000       0.00000000       2.32508612
Ir       0.00000000       0.00000000       2.35515152       0.00000000       0.00000000      -2.32508612
2
Properties=species:S:1:pos:R:3:forces:R:3 energy=-7.587999680146258 pbc="F F F"
Ir       0.00000000       0.00000000       0.00000000       0.00000000       0.00000000       2.57241511
Ir       0.00000000       0.00000000       2.41393939       0.00000000       0.00000000      -2.57241511
2
Properties=species:S:1:pos:R:3:forces:R:3 energy=-7.432299047922283 pbc="F F F"
Ir       0.00000000       0.00000000       0.00000000       0.00000000       0.00000000       2.69564557
Ir       0.00000000       0.00000000       2.47272727       0.00000000       0.00000000      -2.69564557
2
Properties=species:S:1:pos:R:3:forces:R:3 energy=-7.272678465750607 pbc="F F F"
Ir       0.00000000       0.00000000       0.00000000       0.00000000       0.00000000       2.74246120
Ir       0.00000000       0.00000000       2.53151515       0.00000000       0.00000000      -2.74246120
2
Properties=species:S:1:pos:R:3:forces:R:3 energy=-7.108656377557937 pbc="F F F"
Ir       0.00000000       0.00000000       0.00000000       0.00000000       0.00000000       2.83676052
Ir       0.00000000       0.00000000       2.59030303       0.00000000       0.00000000      -2.83676052
2
Properties=species:S:1:pos:R:3:forces:R:3 energy=-6.940653417467502 pbc="F F F"
Ir       0.00000000       0.00000000       0.00000000       0.00000000       0.00000000       2.86066604
Ir       0.00000000       0.00000000       2.64909091       0.00000000       0.00000000      -2.86066604
2
Properties=species:S:1:pos:R:3:forces:R:3 energy=-6.774213376611472 pbc="F F F"
Ir       0.00000000       0.00000000       0.00000000       0.00000000       0.00000000       2.78875422
Ir       0.00000000       0.00000000       2.70787879       0.00000000       0.00000000      -2.78875422
2
Properties=species:S:1:pos:R:3:forces:R:3 energy=-6.613939202750134 pbc="F F F"
Ir       0.00000000       0.00000000       0.00000000       0.00000000       0.00000000       2.65696120
Ir       0.00000000       0.00000000       2.76666667       0.00000000       0.00000000      -2.65696120
2
Properties=species:S:1:pos:R:3:forces:R:3 energy=-6.462236087002658 pbc="F F F"
Ir       0.00000000       0.00000000       0.00000000       0.00000000       0.00000000       2.50344539
Ir       0.00000000       0.00000000       2.82545455       0.00000000       0.00000000      -2.50344539
2
Properties=species:S:1:pos:R:3:forces:R:3 energy=-6.319527940281515 pbc="F F F"
Ir       0.00000000       0.00000000       0.00000000       0.00000000       0.00000000       2.35239744
Ir       0.00000000       0.00000000       2.88424242       0.00000000       0.00000000      -2.35239744
2
Properties=species:S:1:pos:R:3:forces:R:3 energy=-6.185558509413829 pbc="F F F"
Ir       0.00000000       0.00000000       0.00000000       0.00000000       0.00000000       2.20637178
Ir       0.00000000       0.00000000       2.94303030       0.00000000       0.00000000      -2.20637178
2
Properties=species:S:1:pos:R:3:forces:R:3 energy=-6.059889112045468 pbc="F F F"
Ir       0.00000000       0.00000000       0.00000000       0.00000000       0.00000000       2.07152057
Ir       0.00000000       0.00000000       3.00181818       0.00000000       0.00000000      -2.07152057
2
Properties=species:S:1:pos:R:3:forces:R:3 energy=-5.9416899915647114 pbc="F F F"
Ir       0.00000000       0.00000000       0.00000000       0.00000000       0.00000000       1.95168710
Ir       0.00000000       0.00000000       3.06060606       0.00000000       0.00000000      -1.95168710
2
Properties=species:S:1:pos:R:3:forces:R:3 energy=-5.83033898862794 pbc="F F F"
Ir       0.00000000       0.00000000       0.00000000       0.00000000       0.00000000       1.83614469
Ir       0.00000000       0.00000000       3.11939394       0.00000000       0.00000000      -1.83614469
2
Properties=species:S:1:pos:R:3:forces:R:3 energy=-5.725875824455567 pbc="F F F"
Ir       0.00000000       0.00000000       0.00000000       0.00000000       0.00000000       1.71742570
Ir       0.00000000       0.00000000       3.17818182       0.00000000       0.00000000      -1.71742570
2
Properties=species:S:1:pos:R:3:forces:R:3 energy=-5.628376764642357 pbc="F F F"
Ir       0.00000000       0.00000000       0.00000000       0.00000000       0.00000000       1.60048544
Ir       0.00000000       0.00000000       3.23696970       0.00000000       0.00000000      -1.60048544
2
Properties=species:S:1:pos:R:3:forces:R:3 energy=-5.537566089924614 pbc="F F F"
Ir       0.00000000       0.00000000       0.00000000       0.00000000       0.00000000       1.49014235
Ir       0.00000000       0.00000000       3.29575758       0.00000000       0.00000000      -1.49014235
2
Properties=species:S:1:pos:R:3:forces:R:3 energy=-5.45304503170925 pbc="F F F"
Ir       0.00000000       0.00000000       0.00000000       0.00000000       0.00000000       1.38622189
Ir       0.00000000       0.00000000       3.35454545       0.00000000       0.00000000      -1.38622189
2
Properties=species:S:1:pos:R:3:forces:R:3 energy=-5.374497677027106 pbc="F F F"
Ir       0.00000000       0.00000000       0.00000000       0.00000000       0.00000000       1.28644955
Ir       0.00000000       0.00000000       3.41333333       0.00000000       0.00000000      -1.28644955
2
Properties=species:S:1:pos:R:3:forces:R:3 energy=-5.301736095336753 pbc="F F F"
Ir       0.00000000       0.00000000       0.00000000       0.00000000       0.00000000       1.18948805
Ir       0.00000000       0.00000000       3.47212121       0.00000000       0.00000000      -1.18948805
2
Properties=species:S:1:pos:R:3:forces:R:3 energy=-5.23457831889714 pbc="F F F"
Ir       0.00000000       0.00000000       0.00000000       0.00000000       0.00000000       1.09596884
Ir       0.00000000       0.00000000       3.53090909       0.00000000       0.00000000      -1.09596884
2
Properties=species:S:1:pos:R:3:forces:R:3 energy=-5.1727901496273665 pbc="F F F"
Ir       0.00000000       0.00000000       0.00000000       0.00000000       0.00000000       1.00685823
Ir       0.00000000       0.00000000       3.58969697       0.00000000       0.00000000      -1.00685823
2
Properties=species:S:1:pos:R:3:forces:R:3 energy=-5.116112090070732 pbc="F F F"
Ir       0.00000000       0.00000000       0.00000000       0.00000000       0.00000000       0.92186075
Ir       0.00000000       0.00000000       3.64848485       0.00000000       0.00000000      -0.92186075
2
Properties=species:S:1:pos:R:3:forces:R:3 energy=-5.064344087360372 pbc="F F F"
Ir       0.00000000       0.00000000       0.00000000       0.00000000       0.00000000       0.83974081
Ir       0.00000000       0.00000000       3.70727273       0.00000000       0.00000000      -0.83974081
2
Properties=species:S:1:pos:R:3:forces:R:3 energy=-5.01734478228555 pbc="F F F"
Ir       0.00000000       0.00000000       0.00000000       0.00000000       0.00000000       0.75952888
Ir       0.00000000       0.00000000       3.76606061       0.00000000       0.00000000      -0.75952888
2
Properties=species:S:1:pos:R:3:forces:R:3 energy=-4.975006618724774 pbc="F F F"
Ir       0.00000000       0.00000000       0.00000000       0.00000000       0.00000000       0.68115622
Ir       0.00000000       0.00000000       3.82484848       0.00000000       0.00000000      -0.68115622
2
Properties=species:S:1:pos:R:3:forces:R:3 energy=-4.937209316344909 pbc="F F F"
Ir       0.00000000       0.00000000       0.00000000       0.00000000       0.00000000       0.60523701
Ir       0.00000000       0.00000000       3.88363636       0.00000000       0.00000000      -0.60523701
2
Properties=species:S:1:pos:R:3:forces:R:3 energy=-4.903781666607717 pbc="F F F"
Ir       0.00000000       0.00000000       0.00000000       0.00000000       0.00000000       0.53256834
Ir       0.00000000       0.00000000       3.94242424       0.00000000       0.00000000      -0.53256834
2
Properties=species:S:1:pos:R:3:forces:R:3 energy=-4.8745149792449585 pbc="F F F"
Ir       0.00000000       0.00000000       0.00000000       0.00000000       0.00000000       0.46380141
Ir       0.00000000       0.00000000       4.00121212       0.00000000       0.00000000      -0.46380141
2
Properties=species:S:1:pos:R:3:forces:R:3 energy=-4.849163918723284 pbc="F F F"
Ir       0.00000000       0.00000000       0.00000000       0.00000000       0.00000000       0.39944959
Ir       0.00000000       0.00000000       4.06000000       0.00000000       0.00000000      -0.39944959
2
Properties=species:S:1:pos:R:3:forces:R:3 energy=-4.827453278166938 pbc="F F F"
Ir       0.00000000       0.00000000       0.00000000       0.00000000       0.00000000       0.34001029
Ir       0.00000000       0.00000000       4.11878788       0.00000000       0.00000000      -0.34001029
2
Properties=species:S:1:pos:R:3:forces:R:3 energy=-4.809081797222843 pbc="F F F"
Ir       0.00000000       0.00000000       0.00000000       0.00000000       0.00000000       0.28596210
Ir       0.00000000       0.00000000       4.17757576       0.00000000       0.00000000      -0.28596210
2
Properties=species:S:1:pos:R:3:forces:R:3 energy=-4.793719158485661 pbc="F F F"
Ir       0.00000000       0.00000000       0.00000000       0.00000000       0.00000000       0.23763429
Ir       0.00000000       0.00000000       4.23636364       0.00000000       0.00000000      -0.23763429
2
Properties=species:S:1:pos:R:3:forces:R:3 energy=-4.781026942990171 pbc="F F F"
Ir       0.00000000       0.00000000       0.00000000       0.00000000       0.00000000       0.19507980
Ir       0.00000000       0.00000000       4.29515152       0.00000000       0.00000000      -0.19507980
2
Properties=species:S:1:pos:R:3:forces:R:3 energy=-4.770672963836415 pbc="F F F"
Ir       0.00000000       0.00000000       0.00000000       0.00000000       0.00000000       0.15805492
Ir       0.00000000       0.00000000       4.35393939       0.00000000       0.00000000      -0.15805492
2
Properties=species:S:1:pos:R:3:forces:R:3 energy=-4.762345289368277 pbc="F F F"
Ir       0.00000000       0.00000000       0.00000000       0.00000000       0.00000000       0.12610401
Ir       0.00000000       0.00000000       4.41272727       0.00000000       0.00000000      -0.12610401
2
Properties=species:S:1:pos:R:3:forces:R:3 energy=-4.755756124395006 pbc="F F F"
Ir       0.00000000       0.00000000       0.00000000       0.00000000       0.00000000       0.09870391
Ir       0.00000000       0.00000000       4.47151515       0.00000000       0.00000000      -0.09870391
2
Properties=species:S:1:pos:R:3:forces:R:3 energy=-4.75065881160217 pbc="F F F"
Ir       0.00000000       0.00000000       0.00000000       0.00000000       0.00000000       0.07538081
Ir       0.00000000       0.00000000       4.53030303       0.00000000       0.00000000      -0.07538081
2
Properties=species:S:1:pos:R:3:forces:R:3 energy=-4.746823847141741 pbc="F F F"
Ir       0.00000000       0.00000000       0.00000000       0.00000000       0.00000000       0.05577083
Ir       0.00000000       0.00000000       4.58909091       0.00000000       0.00000000      -0.05577083
2
Properties=species:S:1:pos:R:3:forces:R:3 energy=-4.744034980403634 pbc="F F F"
Ir       0.00000000       0.00000000       0.00000000       0.00000000       0.00000000       0.03961216
Ir       0.00000000       0.00000000       4.64787879       0.00000000       0.00000000      -0.03961216
2
Properties=species:S:1:pos:R:3:forces:R:3 energy=-4.7420996379089235 pbc="F F F"
Ir       0.00000000       0.00000000       0.00000000       0.00000000       0.00000000       0.02669280
Ir       0.00000000       0.00000000       4.70666667       0.00000000       0.00000000      -0.02669280
2
Properties=species:S:1:pos:R:3:forces:R:3 energy=-4.7408363703204435 pbc="F F F"
Ir       0.00000000       0.00000000       0.00000000       0.00000000       0.00000000       0.01679119
Ir       0.00000000       0.00000000       4.76545455       0.00000000       0.00000000      -0.01679119
2
Properties=species:S:1:pos:R:3:forces:R:3 energy=-4.740071953405971 pbc="F F F"
Ir       0.00000000       0.00000000       0.00000000       0.00000000       0.00000000       0.00963861
Ir       0.00000000       0.00000000       4.82424242       0.00000000       0.00000000      -0.00963861
2
Properties=species:S:1:pos:R:3:forces:R:3 energy=-4.73965849715513 pbc="F F F"
Ir       0.00000000       0.00000000       0.00000000       0.00000000       0.00000000       0.00492053
Ir       0.00000000       0.00000000       4.88303030       0.00000000       0.00000000      -0.00492053
2
Properties=species:S:1:pos:R:3:forces:R:3 energy=-4.739455221429236 pbc="F F F"
Ir       0.00000000       0.00000000       0.00000000       0.00000000       0.00000000       0.00229583
Ir       0.00000000       0.00000000       4.94181818       0.00000000       0.00000000      -0.00229583
2
Properties=species:S:1:pos:R:3:forces:R:3 energy=-4.739353248325715 pbc="F F F"
Ir       0.00000000       0.00000000       0.00000000       0.00000000       0.00000000       0.00142094
Ir       0.00000000       0.00000000       5.00060606       0.00000000       0.00000000      -0.00142094
2
Properties=species:S:1:pos:R:3:forces:R:3 energy=-4.739258467718617 pbc="F F F"
Ir       0.00000000       0.00000000       0.00000000       0.00000000       0.00000000       0.00195756
Ir       0.00000000       0.00000000       5.05939394       0.00000000       0.00000000      -0.00195756
2
Properties=species:S:1:pos:R:3:forces:R:3 energy=-4.7391028989870465 pbc="F F F"
Ir       0.00000000       0.00000000       0.00000000       0.00000000       0.00000000       0.00356617
Ir       0.00000000       0.00000000       5.11818182       0.00000000       0.00000000      -0.00356617
2
Properties=species:S:1:pos:R:3:forces:R:3 energy=-4.738823757697528 pbc="F F F"
Ir       0.00000000       0.00000000       0.00000000       0.00000000       0.00000000       0.00589504
Ir       0.00000000       0.00000000       5.17696970       0.00000000       0.00000000      -0.00589504
2
Properties=species:S:1:pos:R:3:forces:R:3 energy=-4.738401631087063 pbc="F F F"
Ir       0.00000000       0.00000000       0.00000000       0.00000000       0.00000000       0.00857968
Ir       0.00000000       0.00000000       5.23575758       0.00000000       0.00000000      -0.00857968
2
Properties=species:S:1:pos:R:3:forces:R:3 energy=-4.737816621715866 pbc="F F F"
Ir       0.00000000       0.00000000       0.00000000       0.00000000       0.00000000       0.01125888
Ir       0.00000000       0.00000000       5.29454545       0.00000000       0.00000000      -0.01125888
2
Properties=species:S:1:pos:R:3:forces:R:3 energy=-4.737085610457789 pbc="F F F"
Ir       0.00000000       0.00000000       0.00000000       0.00000000       0.00000000       0.01360884
Ir       0.00000000       0.00000000       5.35333333       0.00000000       0.00000000      -0.01360884
2
Properties=species:S:1:pos:R:3:forces:R:3 energy=-4.736229822070097 pbc="F F F"
Ir       0.00000000       0.00000000       0.00000000       0.00000000       0.00000000       0.01538000
Ir       0.00000000       0.00000000       5.41212121       0.00000000       0.00000000      -0.01538000
2
Properties=species:S:1:pos:R:3:forces:R:3 energy=-4.735290169513734 pbc="F F F"
Ir       0.00000000       0.00000000       0.00000000       0.00000000       0.00000000       0.01642805
Ir       0.00000000       0.00000000       5.47090909       0.00000000       0.00000000      -0.01642805
2
Properties=species:S:1:pos:R:3:forces:R:3 energy=-4.734310116326017 pbc="F F F"
Ir       0.00000000       0.00000000       0.00000000       0.00000000       0.00000000       0.01672547
Ir       0.00000000       0.00000000       5.52969697       0.00000000       0.00000000      -0.01672547
2
Properties=species:S:1:pos:R:3:forces:R:3 energy=-4.733334753040639 pbc="F F F"
Ir       0.00000000       0.00000000       0.00000000       0.00000000       0.00000000       0.01635464
Ir       0.00000000       0.00000000       5.58848485       0.00000000       0.00000000      -0.01635464
2
Properties=species:S:1:pos:R:3:forces:R:3 energy=-4.732398488120573 pbc="F F F"
Ir       0.00000000       0.00000000       0.00000000       0.00000000       0.00000000       0.01548067
Ir       0.00000000       0.00000000       5.64727273       0.00000000       0.00000000      -0.01548067
2
Properties=species:S:1:pos:R:3:forces:R:3 energy=-4.7315240752768215 pbc="F F F"
Ir       0.00000000       0.00000000       0.00000000       0.00000000       0.00000000       0.01431419
Ir       0.00000000       0.00000000       5.70606061       0.00000000       0.00000000      -0.01431419
2
Properties=species:S:1:pos:R:3:forces:R:3 energy=-4.730717903701543 pbc="F F F"
Ir       0.00000000       0.00000000       0.00000000       0.00000000       0.00000000       0.01306803
Ir       0.00000000       0.00000000       5.76484848       0.00000000       0.00000000      -0.01306803
2
Properties=species:S:1:pos:R:3:forces:R:3 energy=-4.729983431079908 pbc="F F F"
Ir       0.00000000       0.00000000       0.00000000       0.00000000       0.00000000       0.01191777
Ir       0.00000000       0.00000000       5.82363636       0.00000000       0.00000000      -0.01191777
2
Properties=species:S:1:pos:R:3:forces:R:3 energy=-4.7293125442924 pbc="F F F"
Ir       0.00000000       0.00000000       0.00000000       0.00000000       0.00000000       0.01096707
Ir       0.00000000       0.00000000       5.88242424       0.00000000       0.00000000      -0.01096707
2
Properties=species:S:1:pos:R:3:forces:R:3 energy=-4.728690411733692 pbc="F F F"
Ir       0.00000000       0.00000000       0.00000000       0.00000000       0.00000000       0.01023167
Ir       0.00000000       0.00000000       5.94121212       0.00000000       0.00000000      -0.01023167
2
Properties=species:S:1:pos:R:3:forces:R:3 energy=-4.728105990361189 pbc="F F F"
Ir       0.00000000       0.00000000       0.00000000       0.00000000       0.00000000       0.00964539
Ir       0.00000000       0.00000000       6.00000000       0.00000000       0.00000000      -0.00964539
