2
Properties=species:S:1:pos:R:3:forces:R:3 energy=86569735.9528694 pbc="F F F"
Ir       0.00000000       0.00000000       0.00000000       0.00000000       0.00000000 -417941888.00000000
Ir       0.00000000       0.00000000       0.10000000       0.00000000       0.00000000 417941888.00000000
2
Properties=species:S:1:pos:R:3:forces:R:3 energy=59264191.95286939 pbc="F F F"
Ir       0.00000000       0.00000000       0.00000000       0.00000000       0.00000000 -469235072.00000000
Ir       0.00000000       0.00000000       0.15959596       0.00000000       0.00000000 469235072.00000000
2
Properties=species:S:1:pos:R:3:forces:R:3 energy=33584231.95286939 pbc="F F F"
Ir       0.00000000       0.00000000       0.00000000       0.00000000       0.00000000 -375177440.00000000
Ir       0.00000000       0.00000000       0.21919192       0.00000000       0.00000000 375177440.00000000
2
Properties=species:S:1:pos:R:3:forces:R:3 energy=15583347.952869399 pbc="F F F"
Ir       0.00000000       0.00000000       0.00000000       0.00000000       0.00000000 -228142848.00000000
Ir       0.00000000       0.00000000       0.27878788       0.00000000       0.00000000 228142848.00000000
2
Properties=species:S:1:pos:R:3:forces:R:3 energy=5834557.4528693985 pbc="F F F"
Ir       0.00000000       0.00000000       0.00000000       0.00000000       0.00000000 -107117784.00000000
Ir       0.00000000       0.00000000       0.33838384       0.00000000       0.00000000 107117784.00000000
2
Properties=species:S:1:pos:R:3:forces:R:3 energy=1761139.9528694018 pbc="F F F"
Ir       0.00000000       0.00000000       0.00000000       0.00000000       0.00000000 -39284292.00000000
Ir       0.00000000       0.00000000       0.39797980       0.00000000       0.00000000 39284292.00000000
2
Properties=species:S:1:pos:R:3:forces:R:3 energy=382540.2653694145 pbc="F F F"
Ir       0.00000000       0.00000000       0.00000000       0.00000000       0.00000000 -11275409.00000000
Ir       0.00000000       0.00000000       0.45757576       0.00000000       0.00000000 11275409.00000000
2
Properties=species:S:1:pos:R:3:forces:R:3 energy=45553.480213183524 pbc="F F F"
Ir       0.00000000       0.00000000       0.00000000       0.00000000       0.00000000 -2003488.12500000
Ir       0.00000000       0.00000000       0.51717172       0.00000000       0.00000000 2003488.12500000
2
Properties=species:S:1:pos:R:3:forces:R:3 energy=473.52598958872375 pbc="F F F"
Ir       0.00000000       0.00000000       0.00000000       0.00000000       0.00000000 -131228.62500000
Ir       0.00000000       0.00000000       0.57676768       0.00000000       0.00000000  131228.62500000
2
Properties=species:S:1:pos:R:3:forces:R:3 energy=-431.772899508076 pbc="F F F"
Ir       0.00000000       0.00000000       0.00000000       0.00000000       0.00000000    6494.19091797
Ir       0.00000000       0.00000000       0.63636364       0.00000000       0.00000000   -6494.19091797
2
Properties=species:S:1:pos:R:3:forces:R:3 energy=-262.66932275288514 pbc="F F F"
Ir       0.00000000       0.00000000       0.00000000       0.00000000       0.00000000    1125.18151855
Ir       0.00000000       0.00000000       0.69595960       0.00000000       0.00000000   -1125.18151855
2
Properties=species:S:1:pos:R:3:forces:R:3 energy=-200.323207488525 pbc="F F F"
Ir       0.00000000       0.00000000       0.00000000       0.00000000       0.00000000     761.93933105
Ir       0.00000000       0.00000000       0.75555556       0.00000000       0.00000000    -761.93933105
2
Properties=species:S:1:pos:R:3:forces:R:3 energy=-186.09522569622678 pbc="F F F"
Ir       0.00000000       0.00000000       0.00000000       0.00000000       0.00000000    -384.97531128
Ir       0.00000000       0.00000000       0.81515152       0.00000000       0.00000000     384.97531128
2
Properties=species:S:1:pos:R:3:forces:R:3 energy=-187.62475112677706 pbc="F F F"
Ir       0.00000000       0.00000000       0.00000000       0.00000000       0.00000000     247.94023132
Ir       0.00000000       0.00000000       0.87474747       0.00000000       0.00000000    -247.94023132
2
Properties=species:S:1:pos:R:3:forces:R:3 energy=-163.2705483937672 pbc="F F F"
Ir       0.00000000       0.00000000       0.00000000       0.00000000       0.00000000     983.47576904
Ir       0.00000000       0.00000000       0.93434343       0.00000000       0.00000000    -983.47576904
2
Properties=species:S:1:pos:R:3:forces:R:3 energy=-82.80040920406243 pbc="F F F"
Ir       0.00000000       0.00000000       0.00000000       0.00000000       0.00000000    1136.98205566
Ir       0.00000000       0.00000000       0.99393939       0.00000000       0.00000000   -1136.98205566
2
Properties=species:S:1:pos:R:3:forces:R:3 energy=-31.997849437153388 pbc="F F F"
Ir       0.00000000       0.00000000       0.00000000       0.00000000       0.00000000     629.95593262
Ir       0.00000000       0.00000000       1.05353535       0.00000000       0.00000000    -629.95593262
2
Properties=species:S:1:pos:R:3:forces:R:3 energy=-1.949074505830873 pbc="F F F"
Ir       0.00000000       0.00000000       0.00000000       0.00000000       0.00000000     390.21356201
Ir       0.00000000       0.00000000       1.11313131       0.00000000       0.00000000    -390.21356201
2
Properties=species:S:1:pos:R:3:forces:R:3 energy=13.527351238283524 pbc="F F F"
Ir       0.00000000       0.00000000       0.00000000       0.00000000       0.00000000     115.67197418
Ir       0.00000000       0.00000000       1.17272727       0.00000000       0.00000000    -115.67197418
2
Properties=species:S:1:pos:R:3:forces:R:3 energy=14.760354936660207 pbc="F F F"
Ir       0.00000000       0.00000000       0.00000000       0.00000000       0.00000000     -36.78985214
Ir       0.00000000       0.00000000       1.23232323       0.00000000       0.00000000      36.78985214
2
Properties=species:S:1:pos:R:3:forces:R:3 energy=11.740276929854254 pbc="F F F"
Ir       0.00000000       0.00000000       0.00000000       0.00000000       0.00000000     -62.02561951
Ir       0.00000000       0.00000000       1.29191919       0.00000000       0.00000000      62.02561951
2
Properties=species:S:1:pos:R:3:forces:R:3 energy=7.754411716556818 pbc="F F F"
Ir       0.00000000       0.00000000       0.00000000       0.00000000       0.00000000     -68.15395355
Ir       0.00000000       0.00000000       1.35151515       0.00000000       0.00000000      68.15395355
2
Properties=species:S:1:pos:R:3:forces:R:3 energy=3.761261274122731 pbc="F F F"
Ir       0.00000000       0.00000000       0.00000000       0.00000000       0.00000000     -63.83336258
Ir       0.00000000       0.00000000       1.41111111       0.00000000       0.00000000      63.83336258
2
Properties=species:S:1:pos:R:3:forces:R:3 energy=0.39648783346487615 pbc="F F F"
Ir       0.00000000       0.00000000       0.00000000       0.00000000       0.00000000     -47.82441711
Ir       0.00000000       0.00000000       1.47070707       0.00000000       0.00000000      47.82441711
2
Properties=species:S:1:pos:R:3:forces:R:3 energy=-1.961005039041655 pbc="F F F"
Ir       0.00000000       0.00000000       0.00000000       0.00000000       0.00000000     -32.95189285
Ir       0.00000000       0.00000000       1.53030303       0.00000000       0.00000000      32.95189285
2
Properties=species:S:1:pos:R:3:forces:R:3 energy=-3.632094142991648 pbc="F F F"
Ir       0.00000000       0.00000000       0.00000000       0.00000000       0.00000000     -23.33824730
Ir       0.00000000       0.00000000       1.58989899       0.00000000       0.00000000      23.33824730
2
Properties=species:S:1:pos:R:3:forces:R:3 energy=-4.800622973846582 pbc="F F F"
Ir       0.00000000       0.00000000       0.00000000       0.00000000       0.00000000     -16.48891640
Ir       0.00000000       0.00000000       1.64949495       0.00000000       0.00000000      16.48891640
2
Properties=species:S:1:pos:R:3:forces:R:3 energy=-5.659263053998556 pbc="F F F"
Ir       0.00000000       0.00000000       0.00000000       0.00000000       0.00000000     -12.56367493
Ir       0.00000000       0.00000000       1.70909091       0.00000000       0.00000000      12.56367493
2
Properties=species:S:1:pos:R:3:forces:R:3 energy=-6.31697922112814 pbc="F F F"
Ir       0.00000000       0.00000000       0.00000000       0.00000000       0.00000000      -9.75083256
Ir       0.00000000       0.00000000       1.76868687       0.00000000       0.00000000       9.75083256
2
Properties=species:S:1:pos:R:3:forces:R:3 energy=-6.863141439169408 pbc="F F F"
Ir       0.00000000       0.00000000       0.00000000       0.00000000       0.00000000      -8.74702740
Ir       0.00000000       0.00000000       1.82828283       0.00000000       0.00000000       8.74702740
2
Properties=species:S:1:pos:R:3:forces:R:3 energy=-7.339075834811891 pbc="F F F"
Ir       0.00000000       0.00000000       0.00000000       0.00000000       0.00000000      -7.17152023
Ir       0.00000000       0.00000000       1.88787879       0.00000000       0.00000000       7.17152023
2
Properties=species:S:1:pos:R:3:forces:R:3 energy=-7.708387342798358 pbc="F F F"
Ir       0.00000000       0.00000000       0.00000000       0.00000000       0.00000000      -5.10988665
Ir       0.00000000       0.00000000       1.94747475       0.00000000       0.00000000       5.10988665
2
Properties=species:S:1:pos:R:3:forces:R:3 energy=-7.945236210899208 pbc="F F F"
Ir       0.00000000       0.00000000       0.00000000       0.00000000       0.00000000      -2.90183616
Ir       0.00000000       0.00000000       2.00707071       0.00000000       0.00000000       2.90183616
2
Properties=species:S:1:pos:R:3:forces:R:3 energy=-8.06722792827088 pbc="F F F"
Ir       0.00000000       0.00000000       0.00000000       0.00000000       0.00000000      -1.26801169
Ir       0.00000000       0.00000000       2.06666667       0.00000000       0.00000000       1.26801169
2
Properties=species:S:1:pos:R:3:forces:R:3 energy=-8.09924928050053 pbc="F F F"
Ir       0.00000000       0.00000000       0.00000000       0.00000000       0.00000000       0.17256360
Ir       0.00000000       0.00000000       2.12626263       0.00000000       0.00000000      -0.17256360
2
Properties=species:S:1:pos:R:3:forces:R:3 energy=-8.055295484645143 pbc="F F F"
Ir       0.00000000       0.00000000       0.00000000       0.00000000       0.00000000       1.19587827
Ir       0.00000000       0.00000000       2.18585859       0.00000000       0.00000000      -1.19587827
2
Properties=species:S:1:pos:R:3:forces:R:3 energy=-7.9640069825159765 pbc="F F F"
Ir       0.00000000       0.00000000       0.00000000       0.00000000       0.00000000       1.83298361
Ir       0.00000000       0.00000000       2.24545455       0.00000000       0.00000000      -1.83298361
2
Properties=species:S:1:pos:R:3:forces:R:3 energy=-7.843862479240228 pbc="F F F"
Ir       0.00000000       0.00000000       0.00000000       0.00000000       0.00000000       2.14402914
Ir       0.00000000       0.00000000       2.30505051       0.00000000       0.00000000      -2.14402914
2
Properties=species:S:1:pos:R:3:forces:R:3 energy=-7.709902727555531 pbc="F F F"
Ir       0.00000000       0.00000000       0.00000000       0.00000000       0.00000000       2.36637473
Ir       0.00000000       0.00000000       2.36464646       0.00000000       0.00000000      -2.36637473
2
Properties=species:S:1:pos:R:3:forces:R:3 energy=-7.561316811748326 pbc="F F F"
Ir       0.00000000       0.00000000       0.00000000       0.00000000       0.00000000       2.60664463
Ir       0.00000000       0.00000000       2.42424242       0.00000000       0.00000000      -2.60664463
2
Properties=species:S:1:pos:R:3:forces:R:3 energy=-7.402308506436575 pbc="F F F"
Ir       0.00000000       0.00000000       0.00000000       0.00000000       0.00000000       2.70274091
Ir       0.00000000       0.00000000       2.48383838       0.00000000       0.00000000      -2.70274091
2
Properties=species:S:1:pos:R:3:forces:R:3 energy=-7.239886319305096 pbc="F F F"
Ir       0.00000000       0.00000000       0.00000000       0.00000000       0.00000000       2.76050305
Ir       0.00000000       0.00000000       2.54343434       0.00000000       0.00000000      -2.76050305
2
Properties=species:S:1:pos:R:3:forces:R:3 energy=-7.072455379346352 pbc="F F F"
Ir       0.00000000       0.00000000       0.00000000       0.00000000       0.00000000       2.85106039
Ir       0.00000000       0.00000000       2.60303030       0.00000000       0.00000000      -2.85106039
2
Properties=species:S:1:pos:R:3:forces:R:3 energy=-6.9019925089714755 pbc="F F F"
Ir       0.00000000       0.00000000       0.00000000       0.00000000       0.00000000       2.85133362
Ir       0.00000000       0.00000000       2.66262626       0.00000000       0.00000000      -2.85133362
2
Properties=species:S:1:pos:R:3:forces:R:3 energy=-6.7344118797586825 pbc="F F F"
Ir       0.00000000       0.00000000       0.00000000       0.00000000       0.00000000       2.76074505
Ir       0.00000000       0.00000000       2.72222222       0.00000000       0.00000000      -2.76074505
2
Properties=species:S:1:pos:R:3:forces:R:3 energy=-6.573976294083118 pbc="F F F"
Ir       0.00000000       0.00000000       0.00000000       0.00000000       0.00000000       2.61796927
Ir       0.00000000       0.00000000       2.78181818       0.00000000       0.00000000      -2.61796927
2
Properties=species:S:1:pos:R:3:forces:R:3 energy=-6.422611442529181 pbc="F F F"
Ir       0.00000000       0.00000000       0.00000000       0.00000000       0.00000000       2.46192813
Ir       0.00000000       0.00000000       2.84141414       0.00000000       0.00000000      -2.46192813
2
Properties=species:S:1:pos:R:3:forces:R:3 energy=-6.280439350737704 pbc="F F F"
Ir       0.00000000       0.00000000       0.00000000       0.00000000       0.00000000       2.31014895
Ir       0.00000000       0.00000000       2.90101010       0.00000000       0.00000000      -2.31014895
2
Properties=species:S:1:pos:R:3:forces:R:3 energy=-6.147151449882961 pbc="F F F"
Ir       0.00000000       0.00000000       0.00000000       0.00000000       0.00000000       2.16444921
Ir       0.00000000       0.00000000       2.96060606       0.00000000       0.00000000      -2.16444921
2
Properties=species:S:1:pos:R:3:forces:R:3 energy=-6.022171392139063 pbc="F F F"
Ir       0.00000000       0.00000000       0.00000000       0.00000000       0.00000000       2.03271222
Ir       0.00000000       0.00000000       3.02020202       0.00000000       0.00000000      -2.03271222
2
Properties=species:S:1:pos:R:3:forces:R:3 energy=-5.90459569275424 pbc="F F F"
Ir       0.00000000       0.00000000       0.00000000       0.00000000       0.00000000       1.91415977
Ir       0.00000000       0.00000000       3.07979798       0.00000000       0.00000000      -1.91415977
2
Properties=species:S:1:pos:R:3:forces:R:3 energy=-5.794017238902843 pbc="F F F"
Ir       0.00000000       0.00000000       0.00000000       0.00000000       0.00000000       1.79601872
Ir       0.00000000       0.00000000       3.13939394       0.00000000       0.00000000      -1.79601872
2
Properties=species:S:1:pos:R:3:forces:R:3 energy=-5.690579981393821 pbc="F F F"
Ir       0.00000000       0.00000000       0.00000000       0.00000000       0.00000000       1.67546535
Ir       0.00000000       0.00000000       3.19898990       0.00000000       0.00000000      -1.67546535
2
Properties=species:S:1:pos:R:3:forces:R:3 energy=-5.594229031924692 pbc="F F F"
Ir       0.00000000       0.00000000       0.00000000       0.00000000       0.00000000       1.55906796
Ir       0.00000000       0.00000000       3.25858586       0.00000000       0.00000000      -1.55906796
2
Properties=species:S:1:pos:R:3:forces:R:3 energy=-5.504603540791827 pbc="F F F"
Ir       0.00000000       0.00000000       0.00000000       0.00000000       0.00000000       1.44985735
Ir       0.00000000       0.00000000       3.31818182       0.00000000       0.00000000      -1.44985735
2
Properties=species:S:1:pos:R:3:forces:R:3 energy=-5.421303697028803 pbc="F F F"
Ir       0.00000000       0.00000000       0.00000000       0.00000000       0.00000000       1.34641731
Ir       0.00000000       0.00000000       3.37777778       0.00000000       0.00000000      -1.34641731
2
Properties=species:S:1:pos:R:3:forces:R:3 energy=-5.344053622980817 pbc="F F F"
Ir       0.00000000       0.00000000       0.00000000       0.00000000       0.00000000       1.24645853
Ir       0.00000000       0.00000000       3.43737374       0.00000000       0.00000000      -1.24645853
2
Properties=species:S:1:pos:R:3:forces:R:3 energy=-5.272675865852631 pbc="F F F"
Ir       0.00000000       0.00000000       0.00000000       0.00000000       0.00000000       1.14946520
Ir       0.00000000       0.00000000       3.49696970       0.00000000       0.00000000      -1.14946520
2
Properties=species:S:1:pos:R:3:forces:R:3 energy=-5.206965620404755 pbc="F F F"
Ir       0.00000000       0.00000000       0.00000000       0.00000000       0.00000000       1.05651891
Ir       0.00000000       0.00000000       3.55656566       0.00000000       0.00000000      -1.05651891
2
Properties=species:S:1:pos:R:3:forces:R:3 energy=-5.146655430332456 pbc="F F F"
Ir       0.00000000       0.00000000       0.00000000       0.00000000       0.00000000       0.96815181
Ir       0.00000000       0.00000000       3.61616162       0.00000000       0.00000000      -0.96815181
2
Properties=species:S:1:pos:R:3:forces:R:3 energy=-5.091496364624247 pbc="F F F"
Ir       0.00000000       0.00000000       0.00000000       0.00000000       0.00000000       0.88348281
Ir       0.00000000       0.00000000       3.67575758       0.00000000       0.00000000      -0.88348281
2
Properties=species:S:1:pos:R:3:forces:R:3 energy=-5.041303869956805 pbc="F F F"
Ir       0.00000000       0.00000000       0.00000000       0.00000000       0.00000000       0.80121493
Ir       0.00000000       0.00000000       3.73535354       0.00000000       0.00000000      -0.80121493
2
Properties=species:S:1:pos:R:3:forces:R:3 energy=-4.99596054935455 pbc="F F F"
Ir       0.00000000       0.00000000       0.00000000       0.00000000       0.00000000       0.72075856
Ir       0.00000000       0.00000000       3.79494949       0.00000000       0.00000000      -0.72075856
2
Properties=species:S:1:pos:R:3:forces:R:3 energy=-4.95535734482859 pbc="F F F"
Ir       0.00000000       0.00000000       0.00000000       0.00000000       0.00000000       0.64244741
Ir       0.00000000       0.00000000       3.85454545       0.00000000       0.00000000      -0.64244741
2
Properties=species:S:1:pos:R:3:forces:R:3 energy=-4.919330430145093 pbc="F F F"
Ir       0.00000000       0.00000000       0.00000000       0.00000000       0.00000000       0.56707835
Ir       0.00000000       0.00000000       3.91414141       0.00000000       0.00000000      -0.56707835
2
Properties=species:S:1:pos:R:3:forces:R:3 energy=-4.887692723259416 pbc="F F F"
Ir       0.00000000       0.00000000       0.00000000       0.00000000       0.00000000       0.49541911
Ir       0.00000000       0.00000000       3.97373737       0.00000000       0.00000000      -0.49541911
2
Properties=species:S:1:pos:R:3:forces:R:3 energy=-4.860194025231961 pbc="F F F"
Ir       0.00000000       0.00000000       0.00000000       0.00000000       0.00000000       0.42806095
Ir       0.00000000       0.00000000       4.03333333       0.00000000       0.00000000      -0.42806095
2
Properties=species:S:1:pos:R:3:forces:R:3 energy=-4.83657417256413 pbc="F F F"
Ir       0.00000000       0.00000000       0.00000000       0.00000000       0.00000000       0.36551780
Ir       0.00000000       0.00000000       4.09292929       0.00000000       0.00000000      -0.36551780
2
Properties=species:S:1:pos:R:3:forces:R:3 energy=-4.816523229967156 pbc="F F F"
Ir       0.00000000       0.00000000       0.00000000       0.00000000       0.00000000       0.30830702
Ir       0.00000000       0.00000000       4.15252525       0.00000000       0.00000000      -0.30830702
2
Properties=species:S:1:pos:R:3:forces:R:3 energy=-4.799708915666269 pbc="F F F"
Ir       0.00000000       0.00000000       0.00000000       0.00000000       0.00000000       0.25685996
Ir       0.00000000       0.00000000       4.21212121       0.00000000       0.00000000      -0.25685996
2
Properties=species:S:1:pos:R:3:forces:R:3 energy=-4.785786134976033 pbc="F F F"
Ir       0.00000000       0.00000000       0.00000000       0.00000000       0.00000000       0.21136090
Ir       0.00000000       0.00000000       4.27171717       0.00000000       0.00000000      -0.21136090
2
Properties=species:S:1:pos:R:3:forces:R:3 energy=-4.774402686507134 pbc="F F F"
Ir       0.00000000       0.00000000       0.00000000       0.00000000       0.00000000       0.17167680
Ir       0.00000000       0.00000000       4.33131313       0.00000000       0.00000000      -0.17167680
2
Properties=species:S:1:pos:R:3:forces:R:3 energy=-4.765216285752082 pbc="F F F"
Ir       0.00000000       0.00000000       0.00000000       0.00000000       0.00000000       0.13740294
Ir       0.00000000       0.00000000       4.39090909       0.00000000       0.00000000      -0.13740294
2
Properties=species:S:1:pos:R:3:forces:R:3 energy=-4.757929733825495 pbc="F F F"
Ir       0.00000000       0.00000000       0.00000000       0.00000000       0.00000000       0.10800553
Ir       0.00000000       0.00000000       4.45050505       0.00000000       0.00000000      -0.10800553
2
Properties=species:S:1:pos:R:3:forces:R:3 energy=-4.75225752935956 pbc="F F F"
Ir       0.00000000       0.00000000       0.00000000       0.00000000       0.00000000       0.08296120
Ir       0.00000000       0.00000000       4.51010101       0.00000000       0.00000000      -0.08296120
2
Properties=species:S:1:pos:R:3:forces:R:3 energy=-4.747962748187979 pbc="F F F"
Ir       0.00000000       0.00000000       0.00000000       0.00000000       0.00000000       0.06184734
Ir       0.00000000       0.00000000       4.56969697       0.00000000       0.00000000      -0.06184734
2
Properties=species:S:1:pos:R:3:forces:R:3 energy=-4.7448142262042206 pbc="F F F"
Ir       0.00000000       0.00000000       0.00000000       0.00000000       0.00000000       0.04436058
Ir       0.00000000       0.00000000       4.62929293       0.00000000       0.00000000      -0.04436058
2
Properties=species:S:1:pos:R:3:forces:R:3 energy=-4.742605369918605 pbc="F F F"
Ir       0.00000000       0.00000000       0.00000000       0.00000000       0.00000000       0.03027061
Ir       0.00000000       0.00000000       4.68888889       0.00000000       0.00000000      -0.03027061
2
Properties=species:S:1:pos:R:3:forces:R:3 energy=-4.741144610211678 pbc="F F F"
Ir       0.00000000       0.00000000       0.00000000       0.00000000       0.00000000       0.01935420
Ir       0.00000000       0.00000000       4.74848485       0.00000000       0.00000000      -0.01935420
2
Properties=species:S:1:pos:R:3:forces:R:3 energy=-4.7402418481531585 pbc="F F F"
Ir       0.00000000       0.00000000       0.00000000       0.00000000       0.00000000       0.01134840
Ir       0.00000000       0.00000000       4.80808081       0.00000000       0.00000000      -0.01134840
2
Properties=species:S:1:pos:R:3:forces:R:3 energy=-4.739738082262198 pbc="F F F"
Ir       0.00000000       0.00000000       0.00000000       0.00000000       0.00000000       0.00593669
Ir       0.00000000       0.00000000       4.86767677       0.00000000       0.00000000      -0.00593669
2
Properties=species:S:1:pos:R:3:forces:R:3 energy=-4.7394880966498585 pbc="F F F"
Ir       0.00000000       0.00000000       0.00000000       0.00000000       0.00000000       0.00276913
Ir       0.00000000       0.00000000       4.92727273       0.00000000       0.00000000      -0.00276913
2
Properties=species:S:1:pos:R:3:forces:R:3 energy=-4.739371867097048 pbc="F F F"
Ir       0.00000000       0.00000000       0.00000000       0.00000000       0.00000000       0.00148666
Ir       0.00000000       0.00000000       4.98686869       0.00000000       0.00000000      -0.00148666
2
Properties=species:S:1:pos:R:3:forces:R:3 energy=-4.739283143889209 pbc="F F F"
Ir       0.00000000       0.00000000       0.00000000       0.00000000       0.00000000       0.00173555
Ir       0.00000000       0.00000000       5.04646465       0.00000000       0.00000000      -0.00173555
2
Properties=species:S:1:pos:R:3:forces:R:3 energy=-4.739142722477289 pbc="F F F"
Ir       0.00000000       0.00000000       0.00000000       0.00000000       0.00000000       0.00316360
Ir       0.00000000       0.00000000       5.10606061       0.00000000       0.00000000      -0.00316360
2
Properties=species:S:1:pos:R:3:forces:R:3 energy=-4.738888992265768 pbc="F F F"
Ir       0.00000000       0.00000000       0.00000000       0.00000000       0.00000000       0.00540797
Ir       0.00000000       0.00000000       5.16565657       0.00000000       0.00000000      -0.00540797
2
Properties=species:S:1:pos:R:3:forces:R:3 energy=-4.73848936803317 pbc="F F F"
Ir       0.00000000       0.00000000       0.00000000       0.00000000       0.00000000       0.00809028
Ir       0.00000000       0.00000000       5.22525253       0.00000000       0.00000000      -0.00809028
2
Properties=species:S:1:pos:R:3:forces:R:3 energy=-4.7379250216395326 pbc="F F F"
Ir       0.00000000       0.00000000       0.00000000       0.00000000       0.00000000       0.01083182
Ir       0.00000000       0.00000000       5.28484848       0.00000000       0.00000000      -0.01083182
2
Properties=species:S:1:pos:R:3:forces:R:3 energy=-4.737204357011903 pbc="F F F"
Ir       0.00000000       0.00000000       0.00000000       0.00000000       0.00000000       0.01328569
Ir       0.00000000       0.00000000       5.34444444       0.00000000       0.00000000      -0.01328569
2
Properties=species:S:1:pos:R:3:forces:R:3 energy=-4.736354392229445 pbc="F F F"
Ir       0.00000000       0.00000000       0.00000000       0.00000000       0.00000000       0.01517748
Ir       0.00000000       0.00000000       5.40404040       0.00000000       0.00000000      -0.01517748
2
Properties=species:S:1:pos:R:3:forces:R:3 energy=-4.735408461543721 pbc="F F F"
Ir       0.00000000       0.00000000       0.00000000       0.00000000       0.00000000       0.01633974
Ir       0.00000000       0.00000000       5.46363636       0.00000000       0.00000000      -0.01633974
2
Properties=species:S:1:pos:R:3:forces:R:3 energy=-4.734418625816099 pbc="F F F"
Ir       0.00000000       0.00000000       0.00000000       0.00000000       0.00000000       0.01672776
Ir       0.00000000       0.00000000       5.52323232       0.00000000       0.00000000      -0.01672776
2
Properties=species:S:1:pos:R:3:forces:R:3 energy=-4.733428095158127 pbc="F F F"
Ir       0.00000000       0.00000000       0.00000000       0.00000000       0.00000000       0.01641523
Ir       0.00000000       0.00000000       5.58282828       0.00000000       0.00000000      -0.01641523
2
Properties=species:S:1:pos:R:3:forces:R:3 energy=-4.732474091538394 pbc="F F F"
Ir       0.00000000       0.00000000       0.00000000       0.00000000       0.00000000       0.01556693
Ir       0.00000000       0.00000000       5.64242424       0.00000000       0.00000000      -0.01556693
2
Properties=species:S:1:pos:R:3:forces:R:3 energy=-4.731579354412703 pbc="F F F"
Ir       0.00000000       0.00000000       0.00000000       0.00000000       0.00000000       0.01439898
Ir       0.00000000       0.00000000       5.70202020       0.00000000       0.00000000      -0.01439898
2
Properties=species:S:1:pos:R:3:forces:R:3 energy=-4.730758833867306 pbc="F F F"
Ir       0.00000000       0.00000000       0.00000000       0.00000000       0.00000000       0.01313573
Ir       0.00000000       0.00000000       5.76161616       0.00000000       0.00000000      -0.01313573
2
Properties=species:S:1:pos:R:3:forces:R:3 energy=-4.730013993915585 pbc="F F F"
Ir       0.00000000       0.00000000       0.00000000       0.00000000       0.00000000       0.01196179
Ir       0.00000000       0.00000000       5.82121212       0.00000000       0.00000000      -0.01196179
2
Properties=species:S:1:pos:R:3:forces:R:3 energy=-4.729330012455679 pbc="F F F"
Ir       0.00000000       0.00000000       0.00000000       0.00000000       0.00000000       0.01099035
Ir       0.00000000       0.00000000       5.88080808       0.00000000       0.00000000      -0.01099035
2
Properties=species:S:1:pos:R:3:forces:R:3 energy=-4.7286977149878044 pbc="F F F"
Ir       0.00000000       0.00000000       0.00000000       0.00000000       0.00000000       0.01024049
Ir       0.00000000       0.00000000       5.94040404       0.00000000       0.00000000      -0.01024049
2
Properties=species:S:1:pos:R:3:forces:R:3 energy=-4.728105990361189 pbc="F F F"
Ir       0.00000000       0.00000000       0.00000000       0.00000000       0.00000000       0.00964539
Ir       0.00000000       0.00000000       6.00000000       0.00000000       0.00000000      -0.00964539
