2
Properties=species:S:1:pos:R:3:forces:R:3 energy=-7554.67017293094 pbc="F F F"
K        0.00000000       0.00000000       0.00000000       0.00000000       0.00000000  119028.15625000
K        0.00000000       0.00000000       0.18000000       0.00000000       0.00000000 -119028.15625000
2
Properties=species:S:1:pos:R:3:forces:R:3 energy=7624.80931925656 pbc="F F F"
K        0.00000000       0.00000000       0.00000000       0.00000000       0.00000000  227867.10937500
K        0.00000000       0.00000000       0.23878788       0.00000000       0.00000000 -227867.10937500
2
Properties=species:S:1:pos:R:3:forces:R:3 energy=12885.988518475311 pbc="F F F"
K        0.00000000       0.00000000       0.00000000       0.00000000       0.00000000  -17872.97851562
K        0.00000000       0.00000000       0.29757576       0.00000000       0.00000000   17872.97851562
2
Properties=species:S:1:pos:R:3:forces:R:3 energy=9125.115471601894 pbc="F F F"
K        0.00000000       0.00000000       0.00000000       0.00000000       0.00000000  -96187.85156250
K        0.00000000       0.00000000       0.35636364       0.00000000       0.00000000   96187.85156250
2
Properties=species:S:1:pos:R:3:forces:R:3 energy=4352.027580976895 pbc="F F F"
K        0.00000000       0.00000000       0.00000000       0.00000000       0.00000000  -66962.38281250
K        0.00000000       0.00000000       0.41515152       0.00000000       0.00000000   66962.38281250
2
Properties=species:S:1:pos:R:3:forces:R:3 energy=1477.0219657456873 pbc="F F F"
K        0.00000000       0.00000000       0.00000000       0.00000000       0.00000000  -29112.83398438
K        0.00000000       0.00000000       0.47393939       0.00000000       0.00000000   29112.83398438
2
Properties=species:S:1:pos:R:3:forces:R:3 energy=494.5517509051051 pbc="F F F"
K        0.00000000       0.00000000       0.00000000       0.00000000       0.00000000   -7946.01269531
K        0.00000000       0.00000000       0.53272727       0.00000000       0.00000000    7946.01269531
2
Properties=species:S:1:pos:R:3:forces:R:3 energy=241.21875835772983 pbc="F F F"
K        0.00000000       0.00000000       0.00000000       0.00000000       0.00000000   -2236.53515625
K        0.00000000       0.00000000       0.59151515       0.00000000       0.00000000    2236.53515625
2
Properties=species:S:1:pos:R:3:forces:R:3 energy=162.571465276413 pbc="F F F"
K        0.00000000       0.00000000       0.00000000       0.00000000       0.00000000    -863.98431396
K        0.00000000       0.00000000       0.65030303       0.00000000       0.00000000     863.98431396
2
Properties=species:S:1:pos:R:3:forces:R:3 energy=112.5036170866857 pbc="F F F"
K        0.00000000       0.00000000       0.00000000       0.00000000       0.00000000    -841.37872314
K        0.00000000       0.00000000       0.70909091       0.00000000       0.00000000     841.37872314
2
Properties=species:S:1:pos:R:3:forces:R:3 energy=67.0593422065167 pbc="F F F"
K        0.00000000       0.00000000       0.00000000       0.00000000       0.00000000    -601.94018555
K        0.00000000       0.00000000       0.76787879       0.00000000       0.00000000     601.94018555
2
Properties=species:S:1:pos:R:3:forces:R:3 energy=42.75685582168501 pbc="F F F"
K        0.00000000       0.00000000       0.00000000       0.00000000       0.00000000    -232.76248169
K        0.00000000       0.00000000       0.82666667       0.00000000       0.00000000     232.76248169
2
Properties=species:S:1:pos:R:3:forces:R:3 energy=38.01091852495805 pbc="F F F"
K        0.00000000       0.00000000       0.00000000       0.00000000       0.00000000      54.03826523
K        0.00000000       0.00000000       0.88545455       0.00000000       0.00000000     -54.03826523
2
Properties=species:S:1:pos:R:3:forces:R:3 energy=44.37535569792163 pbc="F F F"
K        0.00000000       0.00000000       0.00000000       0.00000000       0.00000000     123.17562866
K        0.00000000       0.00000000       0.94424242       0.00000000       0.00000000    -123.17562866
2
Properties=species:S:1:pos:R:3:forces:R:3 energy=51.1727648537413 pbc="F F F"
K        0.00000000       0.00000000       0.00000000       0.00000000       0.00000000     100.58837891
K        0.00000000       0.00000000       1.00303030       0.00000000       0.00000000    -100.58837891
2
Properties=species:S:1:pos:R:3:forces:R:3 energy=56.12788888498919 pbc="F F F"
K        0.00000000       0.00000000       0.00000000       0.00000000       0.00000000      56.36397552
K        0.00000000       0.00000000       1.06181818       0.00000000       0.00000000     -56.36397552
2
Properties=species:S:1:pos:R:3:forces:R:3 energy=57.356515310440116 pbc="F F F"
K        0.00000000       0.00000000       0.00000000       0.00000000       0.00000000     -19.02462769
K        0.00000000       0.00000000       1.12060606       0.00000000       0.00000000      19.02462769
2
Properties=species:S:1:pos:R:3:forces:R:3 energy=54.65129245185939 pbc="F F F"
K        0.00000000       0.00000000       0.00000000       0.00000000       0.00000000     -63.17804337
K        0.00000000       0.00000000       1.17939394       0.00000000       0.00000000      63.17804337
2
Properties=species:S:1:pos:R:3:forces:R:3 energy=51.2017802647774 pbc="F F F"
K        0.00000000       0.00000000       0.00000000       0.00000000       0.00000000     -56.72260284
K        0.00000000       0.00000000       1.23818182       0.00000000       0.00000000      56.72260284
2
Properties=species:S:1:pos:R:3:forces:R:3 energy=47.11941751150221 pbc="F F F"
K        0.00000000       0.00000000       0.00000000       0.00000000       0.00000000     -82.76337433
K        0.00000000       0.00000000       1.29696970       0.00000000       0.00000000      82.76337433
2
Properties=species:S:1:pos:R:3:forces:R:3 energy=41.87933238328498 pbc="F F F"
K        0.00000000       0.00000000       0.00000000       0.00000000       0.00000000     -93.89912415
K        0.00000000       0.00000000       1.35575758       0.00000000       0.00000000      93.89912415
2
Properties=species:S:1:pos:R:3:forces:R:3 energy=36.157988984694924 pbc="F F F"
K        0.00000000       0.00000000       0.00000000       0.00000000       0.00000000     -98.72059631
K        0.00000000       0.00000000       1.41454545       0.00000000       0.00000000      98.72059631
2
Properties=species:S:1:pos:R:3:forces:R:3 energy=30.55093024403772 pbc="F F F"
K        0.00000000       0.00000000       0.00000000       0.00000000       0.00000000     -90.60439301
K        0.00000000       0.00000000       1.47333333       0.00000000       0.00000000      90.60439301
2
Properties=species:S:1:pos:R:3:forces:R:3 energy=25.5313140725142 pbc="F F F"
K        0.00000000       0.00000000       0.00000000       0.00000000       0.00000000     -79.81037140
K        0.00000000       0.00000000       1.53212121       0.00000000       0.00000000      79.81037140
2
Properties=species:S:1:pos:R:3:forces:R:3 energy=21.168976164644384 pbc="F F F"
K        0.00000000       0.00000000       0.00000000       0.00000000       0.00000000     -69.47752380
K        0.00000000       0.00000000       1.59090909       0.00000000       0.00000000      69.47752380
2
Properties=species:S:1:pos:R:3:forces:R:3 energy=17.367290276703855 pbc="F F F"
K        0.00000000       0.00000000       0.00000000       0.00000000       0.00000000     -59.08462524
K        0.00000000       0.00000000       1.64969697       0.00000000       0.00000000      59.08462524
2
Properties=species:S:1:pos:R:3:forces:R:3 energy=14.205239753591243 pbc="F F F"
K        0.00000000       0.00000000       0.00000000       0.00000000       0.00000000     -48.64076614
K        0.00000000       0.00000000       1.70848485       0.00000000       0.00000000      48.64076614
2
Properties=species:S:1:pos:R:3:forces:R:3 energy=11.685487301515293 pbc="F F F"
K        0.00000000       0.00000000       0.00000000       0.00000000       0.00000000     -37.52367401
K        0.00000000       0.00000000       1.76727273       0.00000000       0.00000000      37.52367401
2
Properties=species:S:1:pos:R:3:forces:R:3 energy=9.707946759002951 pbc="F F F"
K        0.00000000       0.00000000       0.00000000       0.00000000       0.00000000     -29.96407890
K        0.00000000       0.00000000       1.82606061       0.00000000       0.00000000      29.96407890
2
Properties=species:S:1:pos:R:3:forces:R:3 energy=8.137656104333658 pbc="F F F"
K        0.00000000       0.00000000       0.00000000       0.00000000       0.00000000     -23.66614723
K        0.00000000       0.00000000       1.88484848       0.00000000       0.00000000      23.66614723
2
Properties=species:S:1:pos:R:3:forces:R:3 energy=6.886483022592471 pbc="F F F"
K        0.00000000       0.00000000       0.00000000       0.00000000       0.00000000     -19.27184868
K        0.00000000       0.00000000       1.94363636       0.00000000       0.00000000      19.27184868
2
Properties=species:S:1:pos:R:3:forces:R:3 energy=5.8430756197813905 pbc="F F F"
K        0.00000000       0.00000000       0.00000000       0.00000000       0.00000000     -16.37196350
K        0.00000000       0.00000000       2.00242424       0.00000000       0.00000000      16.37196350
2
Properties=species:S:1:pos:R:3:forces:R:3 energy=4.940066901390012 pbc="F F F"
K        0.00000000       0.00000000       0.00000000       0.00000000       0.00000000     -14.55171967
K        0.00000000       0.00000000       2.06121212       0.00000000       0.00000000      14.55171967
2
Properties=species:S:1:pos:R:3:forces:R:3 energy=4.122672181337083 pbc="F F F"
K        0.00000000       0.00000000       0.00000000       0.00000000       0.00000000     -13.25912571
K        0.00000000       0.00000000       2.12000000       0.00000000       0.00000000      13.25912571
2
Properties=species:S:1:pos:R:3:forces:R:3 energy=3.3762269141973538 pbc="F F F"
K        0.00000000       0.00000000       0.00000000       0.00000000       0.00000000     -12.19342613
K        0.00000000       0.00000000       2.17878788       0.00000000       0.00000000      12.19342613
2
Properties=species:S:1:pos:R:3:forces:R:3 energy=2.6910924213608607 pbc="F F F"
K        0.00000000       0.00000000       0.00000000       0.00000000       0.00000000     -11.05206013
K        0.00000000       0.00000000       2.23757576       0.00000000       0.00000000      11.05206013
2
Properties=species:S:1:pos:R:3:forces:R:3 energy=2.079527832872911 pbc="F F F"
K        0.00000000       0.00000000       0.00000000       0.00000000       0.00000000      -9.75562477
K        0.00000000       0.00000000       2.29636364       0.00000000       0.00000000       9.75562477
2
Properties=species:S:1:pos:R:3:forces:R:3 energy=1.5443862048352095 pbc="F F F"
K        0.00000000       0.00000000       0.00000000       0.00000000       0.00000000      -8.44797039
K        0.00000000       0.00000000       2.35515152       0.00000000       0.00000000       8.44797039
2
Properties=species:S:1:pos:R:3:forces:R:3 energy=1.0858641414606647 pbc="F F F"
K        0.00000000       0.00000000       0.00000000       0.00000000       0.00000000      -7.15786409
K        0.00000000       0.00000000       2.41393939       0.00000000       0.00000000       7.15786409
2
Properties=species:S:1:pos:R:3:forces:R:3 energy=0.7011465466387978 pbc="F F F"
K        0.00000000       0.00000000       0.00000000       0.00000000       0.00000000      -5.95273638
K        0.00000000       0.00000000       2.47272727       0.00000000       0.00000000       5.95273638
2
Properties=species:S:1:pos:R:3:forces:R:3 energy=0.38306482634731237 pbc="F F F"
K        0.00000000       0.00000000       0.00000000       0.00000000       0.00000000      -4.89568567
K        0.00000000       0.00000000       2.53151515       0.00000000       0.00000000       4.89568567
2
Properties=species:S:1:pos:R:3:forces:R:3 energy=0.12162468282653247 pbc="F F F"
K        0.00000000       0.00000000       0.00000000       0.00000000       0.00000000      -4.03624773
K        0.00000000       0.00000000       2.59030303       0.00000000       0.00000000       4.03624773
2
Properties=species:S:1:pos:R:3:forces:R:3 energy=-0.09568781298582901 pbc="F F F"
K        0.00000000       0.00000000       0.00000000       0.00000000       0.00000000      -3.38792825
K        0.00000000       0.00000000       2.64909091       0.00000000       0.00000000       3.38792825
2
Properties=species:S:1:pos:R:3:forces:R:3 energy=-0.2796661300070409 pbc="F F F"
K        0.00000000       0.00000000       0.00000000       0.00000000       0.00000000      -2.89017582
K        0.00000000       0.00000000       2.70787879       0.00000000       0.00000000       2.89017582
2
Properties=species:S:1:pos:R:3:forces:R:3 energy=-0.43718364303767326 pbc="F F F"
K        0.00000000       0.00000000       0.00000000       0.00000000       0.00000000      -2.47978187
K        0.00000000       0.00000000       2.76666667       0.00000000       0.00000000       2.47978187
2
Properties=species:S:1:pos:R:3:forces:R:3 energy=-0.5723871656720466 pbc="F F F"
K        0.00000000       0.00000000       0.00000000       0.00000000       0.00000000      -2.12932754
K        0.00000000       0.00000000       2.82545455       0.00000000       0.00000000       2.12932754
2
Properties=species:S:1:pos:R:3:forces:R:3 energy=-0.6886366985152247 pbc="F F F"
K        0.00000000       0.00000000       0.00000000       0.00000000       0.00000000      -1.83470821
K        0.00000000       0.00000000       2.88424242       0.00000000       0.00000000       1.83470821
2
Properties=species:S:1:pos:R:3:forces:R:3 energy=-0.789155434257377 pbc="F F F"
K        0.00000000       0.00000000       0.00000000       0.00000000       0.00000000      -1.59338605
K        0.00000000       0.00000000       2.94303030       0.00000000       0.00000000       1.59338605
2
Properties=species:S:1:pos:R:3:forces:R:3 energy=-0.8768604234618183 pbc="F F F"
K        0.00000000       0.00000000       0.00000000       0.00000000       0.00000000      -1.39684641
K        0.00000000       0.00000000       3.00181818       0.00000000       0.00000000       1.39684641
2
Properties=species:S:1:pos:R:3:forces:R:3 energy=-0.9540268621986998 pbc="F F F"
K        0.00000000       0.00000000       0.00000000       0.00000000       0.00000000      -1.23302341
K        0.00000000       0.00000000       3.06060606       0.00000000       0.00000000       1.23302341
2
Properties=species:S:1:pos:R:3:forces:R:3 energy=-1.0223153984759143 pbc="F F F"
K        0.00000000       0.00000000       0.00000000       0.00000000       0.00000000      -1.09396744
K        0.00000000       0.00000000       3.11939394       0.00000000       0.00000000       1.09396744
2
Properties=species:S:1:pos:R:3:forces:R:3 energy=-1.083089133914635 pbc="F F F"
K        0.00000000       0.00000000       0.00000000       0.00000000       0.00000000      -0.97726107
K        0.00000000       0.00000000       3.17818182       0.00000000       0.00000000       0.97726107
2
Properties=species:S:1:pos:R:3:forces:R:3 energy=-1.1376373364042456 pbc="F F F"
K        0.00000000       0.00000000       0.00000000       0.00000000       0.00000000      -0.88189149
K        0.00000000       0.00000000       3.23696970       0.00000000       0.00000000       0.88189149
2
Properties=species:S:1:pos:R:3:forces:R:3 energy=-1.1871506936713563 pbc="F F F"
K        0.00000000       0.00000000       0.00000000       0.00000000       0.00000000      -0.80550998
K        0.00000000       0.00000000       3.29575758       0.00000000       0.00000000       0.80550998
2
Properties=species:S:1:pos:R:3:forces:R:3 energy=-1.2326392481873503 pbc="F F F"
K        0.00000000       0.00000000       0.00000000       0.00000000       0.00000000      -0.74411684
K        0.00000000       0.00000000       3.35454545       0.00000000       0.00000000       0.74411684
2
Properties=species:S:1:pos:R:3:forces:R:3 energy=-1.2748321781698666 pbc="F F F"
K        0.00000000       0.00000000       0.00000000       0.00000000       0.00000000      -0.69243312
K        0.00000000       0.00000000       3.41333333       0.00000000       0.00000000       0.69243312
2
Properties=species:S:1:pos:R:3:forces:R:3 energy=-1.3141310580378298 pbc="F F F"
K        0.00000000       0.00000000       0.00000000       0.00000000       0.00000000      -0.64472938
K        0.00000000       0.00000000       3.47212121       0.00000000       0.00000000       0.64472938
2
Properties=species:S:1:pos:R:3:forces:R:3 energy=-1.3506242743999715 pbc="F F F"
K        0.00000000       0.00000000       0.00000000       0.00000000       0.00000000      -0.59645635
K        0.00000000       0.00000000       3.53090909       0.00000000       0.00000000       0.59645635
2
Properties=species:S:1:pos:R:3:forces:R:3 energy=-1.3842094488275072 pbc="F F F"
K        0.00000000       0.00000000       0.00000000       0.00000000       0.00000000      -0.54567426
K        0.00000000       0.00000000       3.58969697       0.00000000       0.00000000       0.54567426
2
Properties=species:S:1:pos:R:3:forces:R:3 energy=-1.4147447314496377 pbc="F F F"
K        0.00000000       0.00000000       0.00000000       0.00000000       0.00000000      -0.49306631
K        0.00000000       0.00000000       3.64848485       0.00000000       0.00000000       0.49306631
2
Properties=species:S:1:pos:R:3:forces:R:3 energy=-1.4421868856606204 pbc="F F F"
K        0.00000000       0.00000000       0.00000000       0.00000000       0.00000000      -0.44078135
K        0.00000000       0.00000000       3.70727273       0.00000000       0.00000000       0.44078135
2
Properties=species:S:1:pos:R:3:forces:R:3 energy=-1.466621305854062 pbc="F F F"
K        0.00000000       0.00000000       0.00000000       0.00000000       0.00000000      -0.39105645
K        0.00000000       0.00000000       3.76606061       0.00000000       0.00000000       0.39105645
2
Properties=species:S:1:pos:R:3:forces:R:3 energy=-1.4882437874092005 pbc="F F F"
K        0.00000000       0.00000000       0.00000000       0.00000000       0.00000000      -0.34529081
K        0.00000000       0.00000000       3.82484848       0.00000000       0.00000000       0.34529081
2
Properties=species:S:1:pos:R:3:forces:R:3 energy=-1.507303742559458 pbc="F F F"
K        0.00000000       0.00000000       0.00000000       0.00000000       0.00000000      -0.30378237
K        0.00000000       0.00000000       3.88363636       0.00000000       0.00000000       0.30378237
2
Properties=species:S:1:pos:R:3:forces:R:3 energy=-1.524036025942251 pbc="F F F"
K        0.00000000       0.00000000       0.00000000       0.00000000       0.00000000      -0.26605240
K        0.00000000       0.00000000       3.94242424       0.00000000       0.00000000       0.26605240
2
Properties=species:S:1:pos:R:3:forces:R:3 energy=-1.5386437285438175 pbc="F F F"
K        0.00000000       0.00000000       0.00000000       0.00000000       0.00000000      -0.23140869
K        0.00000000       0.00000000       4.00121212       0.00000000       0.00000000       0.23140869
2
Properties=species:S:1:pos:R:3:forces:R:3 energy=-1.551294967656357 pbc="F F F"
K        0.00000000       0.00000000       0.00000000       0.00000000       0.00000000      -0.19942498
K        0.00000000       0.00000000       4.06000000       0.00000000       0.00000000       0.19942498
2
Properties=species:S:1:pos:R:3:forces:R:3 energy=-1.5621457797661016 pbc="F F F"
K        0.00000000       0.00000000       0.00000000       0.00000000       0.00000000      -0.17015491
K        0.00000000       0.00000000       4.11878788       0.00000000       0.00000000       0.17015491
2
Properties=species:S:1:pos:R:3:forces:R:3 energy=-1.5713652347567804 pbc="F F F"
K        0.00000000       0.00000000       0.00000000       0.00000000       0.00000000      -0.14411156
K        0.00000000       0.00000000       4.17757576       0.00000000       0.00000000       0.14411156
2
Properties=species:S:1:pos:R:3:forces:R:3 energy=-1.5791691488938608 pbc="F F F"
K        0.00000000       0.00000000       0.00000000       0.00000000       0.00000000      -0.12218163
K        0.00000000       0.00000000       4.23636364       0.00000000       0.00000000       0.12218163
2
Properties=species:S:1:pos:R:3:forces:R:3 energy=-1.5858356347043743 pbc="F F F"
K        0.00000000       0.00000000       0.00000000       0.00000000       0.00000000      -0.10562322
K        0.00000000       0.00000000       4.29515152       0.00000000       0.00000000       0.10562322
2
Properties=species:S:1:pos:R:3:forces:R:3 energy=-1.5917272771414246 pbc="F F F"
K        0.00000000       0.00000000       0.00000000       0.00000000       0.00000000      -0.09621118
K        0.00000000       0.00000000       4.35393939       0.00000000       0.00000000       0.09621118
2
Properties=species:S:1:pos:R:3:forces:R:3 energy=-1.5973351275461865 pbc="F F F"
K        0.00000000       0.00000000       0.00000000       0.00000000       0.00000000      -0.09638979
K        0.00000000       0.00000000       4.41272727       0.00000000       0.00000000       0.09638979
2
Properties=species:S:1:pos:R:3:forces:R:3 energy=-1.6033045951083194 pbc="F F F"
K        0.00000000       0.00000000       0.00000000       0.00000000       0.00000000      -0.10897949
K        0.00000000       0.00000000       4.47151515       0.00000000       0.00000000       0.10897949
2
Properties=species:S:1:pos:R:3:forces:R:3 energy=-1.610425005259206 pbc="F F F"
K        0.00000000       0.00000000       0.00000000       0.00000000       0.00000000      -0.13553183
K        0.00000000       0.00000000       4.53030303       0.00000000       0.00000000       0.13553183
2
Properties=species:S:1:pos:R:3:forces:R:3 energy=-1.6194542363652533 pbc="F F F"
K        0.00000000       0.00000000       0.00000000       0.00000000       0.00000000      -0.17269893
K        0.00000000       0.00000000       4.58909091       0.00000000       0.00000000       0.17269893
2
Properties=species:S:1:pos:R:3:forces:R:3 energy=-1.6307123728129225 pbc="F F F"
K        0.00000000       0.00000000       0.00000000       0.00000000       0.00000000      -0.20869051
K        0.00000000       0.00000000       4.64787879       0.00000000       0.00000000       0.20869051
2
Properties=species:S:1:pos:R:3:forces:R:3 energy=-1.643616433241465 pbc="F F F"
K        0.00000000       0.00000000       0.00000000       0.00000000       0.00000000      -0.22574490
K        0.00000000       0.00000000       4.70666667       0.00000000       0.00000000       0.22574490
2
Properties=species:S:1:pos:R:3:forces:R:3 energy=-1.6566184869774119 pbc="F F F"
K        0.00000000       0.00000000       0.00000000       0.00000000       0.00000000      -0.21092880
K        0.00000000       0.00000000       4.76545455       0.00000000       0.00000000       0.21092880
2
Properties=species:S:1:pos:R:3:forces:R:3 energy=-1.667808265993657 pbc="F F F"
K        0.00000000       0.00000000       0.00000000       0.00000000       0.00000000      -0.16549015
K        0.00000000       0.00000000       4.82424242       0.00000000       0.00000000       0.16549015
2
Properties=species:S:1:pos:R:3:forces:R:3 energy=-1.6757303975564692 pbc="F F F"
K        0.00000000       0.00000000       0.00000000       0.00000000       0.00000000      -0.10238522
K        0.00000000       0.00000000       4.88303030       0.00000000       0.00000000       0.10238522
2
Properties=species:S:1:pos:R:3:forces:R:3 energy=-1.6797945254552895 pbc="F F F"
K        0.00000000       0.00000000       0.00000000       0.00000000       0.00000000      -0.03638335
K        0.00000000       0.00000000       4.94181818       0.00000000       0.00000000       0.03638335
2
Properties=species:S:1:pos:R:3:forces:R:3 energy=-1.6801480125737016 pbc="F F F"
K        0.00000000       0.00000000       0.00000000       0.00000000       0.00000000       0.02267751
K        0.00000000       0.00000000       5.00060606       0.00000000       0.00000000      -0.02267751
2
Properties=species:S:1:pos:R:3:forces:R:3 energy=-1.6773459027449285 pbc="F F F"
K        0.00000000       0.00000000       0.00000000       0.00000000       0.00000000       0.07065707
K        0.00000000       0.00000000       5.05939394       0.00000000       0.00000000      -0.07065707
2
Properties=species:S:1:pos:R:3:forces:R:3 energy=-1.6720683446479219 pbc="F F F"
K        0.00000000       0.00000000       0.00000000       0.00000000       0.00000000       0.10700343
K        0.00000000       0.00000000       5.11818182       0.00000000       0.00000000      -0.10700343
2
Properties=species:S:1:pos:R:3:forces:R:3 energy=-1.6649747728888145 pbc="F F F"
K        0.00000000       0.00000000       0.00000000       0.00000000       0.00000000       0.13266516
K        0.00000000       0.00000000       5.17696970       0.00000000       0.00000000      -0.13266516
2
Properties=species:S:1:pos:R:3:forces:R:3 energy=-1.6566545793138312 pbc="F F F"
K        0.00000000       0.00000000       0.00000000       0.00000000       0.00000000       0.14893845
K        0.00000000       0.00000000       5.23575758       0.00000000       0.00000000      -0.14893845
2
Properties=species:S:1:pos:R:3:forces:R:3 energy=-1.6476235133715618 pbc="F F F"
K        0.00000000       0.00000000       0.00000000       0.00000000       0.00000000       0.15705711
K        0.00000000       0.00000000       5.29454545       0.00000000       0.00000000      -0.15705711
2
Properties=species:S:1:pos:R:3:forces:R:3 energy=-1.638325382179842 pbc="F F F"
K        0.00000000       0.00000000       0.00000000       0.00000000       0.00000000       0.15817916
K        0.00000000       0.00000000       5.35333333       0.00000000       0.00000000      -0.15817916
2
Properties=species:S:1:pos:R:3:forces:R:3 energy=-1.629139267914381 pbc="F F F"
K        0.00000000       0.00000000       0.00000000       0.00000000       0.00000000       0.15350589
K        0.00000000       0.00000000       5.41212121       0.00000000       0.00000000      -0.15350589
2
Properties=species:S:1:pos:R:3:forces:R:3 energy=-1.62036439119145 pbc="F F F"
K        0.00000000       0.00000000       0.00000000       0.00000000       0.00000000       0.14437255
K        0.00000000       0.00000000       5.47090909       0.00000000       0.00000000      -0.14437255
2
Properties=species:S:1:pos:R:3:forces:R:3 energy=-1.6122222562610333 pbc="F F F"
K        0.00000000       0.00000000       0.00000000       0.00000000       0.00000000       0.13225213
K        0.00000000       0.00000000       5.52969697       0.00000000       0.00000000      -0.13225213
2
Properties=species:S:1:pos:R:3:forces:R:3 energy=-1.604844521739016 pbc="F F F"
K        0.00000000       0.00000000       0.00000000       0.00000000       0.00000000       0.11868954
K        0.00000000       0.00000000       5.58848485       0.00000000       0.00000000      -0.11868954
2
Properties=species:S:1:pos:R:3:forces:R:3 energy=-1.5982665066697868 pbc="F F F"
K        0.00000000       0.00000000       0.00000000       0.00000000       0.00000000       0.10517133
K        0.00000000       0.00000000       5.64727273       0.00000000       0.00000000      -0.10517133
2
Properties=species:S:1:pos:R:3:forces:R:3 energy=-1.5924517009871397 pbc="F F F"
K        0.00000000       0.00000000       0.00000000       0.00000000       0.00000000       0.09295406
K        0.00000000       0.00000000       5.70606061       0.00000000       0.00000000      -0.09295406
2
Properties=species:S:1:pos:R:3:forces:R:3 energy=-1.5872920389714162 pbc="F F F"
K        0.00000000       0.00000000       0.00000000       0.00000000       0.00000000       0.08291124
K        0.00000000       0.00000000       5.76484848       0.00000000       0.00000000      -0.08291124
2
Properties=species:S:1:pos:R:3:forces:R:3 energy=-1.5826512577691434 pbc="F F F"
K        0.00000000       0.00000000       0.00000000       0.00000000       0.00000000       0.07547823
K        0.00000000       0.00000000       5.82363636       0.00000000       0.00000000      -0.07547823
2
Properties=species:S:1:pos:R:3:forces:R:3 energy=-1.5783699982260917 pbc="F F F"
K        0.00000000       0.00000000       0.00000000       0.00000000       0.00000000       0.07056613
K        0.00000000       0.00000000       5.88242424       0.00000000       0.00000000      -0.07056613
2
Properties=species:S:1:pos:R:3:forces:R:3 energy=-1.5743156230431556 pbc="F F F"
K        0.00000000       0.00000000       0.00000000       0.00000000       0.00000000       0.06762405
K        0.00000000       0.00000000       5.94121212       0.00000000       0.00000000      -0.06762405
2
Properties=species:S:1:pos:R:3:forces:R:3 energy=-1.5703976979850345 pbc="F F F"
K        0.00000000       0.00000000       0.00000000       0.00000000       0.00000000       0.06572454
K        0.00000000       0.00000000       6.00000000       0.00000000       0.00000000      -0.06572454
