2
Properties=species:S:1:pos:R:3:forces:R:3 energy=-97.56934073153859 pbc="F F F"
Kr       0.00000000       0.00000000       0.00000000       0.00000000       0.00000000     537.52032471
Kr       0.00000000       0.00000000       0.10000000       0.00000000       0.00000000    -537.52032471
2
Properties=species:S:1:pos:R:3:forces:R:3 energy=-62.79012777987844 pbc="F F F"
Kr       0.00000000       0.00000000       0.00000000       0.00000000       0.00000000     586.68011475
Kr       0.00000000       0.00000000       0.15959596       0.00000000       0.00000000    -586.68011475
2
Properties=species:S:1:pos:R:3:forces:R:3 energy=-30.28644468966848 pbc="F F F"
Kr       0.00000000       0.00000000       0.00000000       0.00000000       0.00000000     469.74023438
Kr       0.00000000       0.00000000       0.21919192       0.00000000       0.00000000    -469.74023438
2
Properties=species:S:1:pos:R:3:forces:R:3 energy=-6.314866088478195 pbc="F F F"
Kr       0.00000000       0.00000000       0.00000000       0.00000000       0.00000000     348.86914062
Kr       0.00000000       0.00000000       0.27878788       0.00000000       0.00000000    -348.86914062
2
Properties=species:S:1:pos:R:3:forces:R:3 energy=10.013047198991385 pbc="F F F"
Kr       0.00000000       0.00000000       0.00000000       0.00000000       0.00000000     171.73905945
Kr       0.00000000       0.00000000       0.33838384       0.00000000       0.00000000    -171.73905945
2
Properties=species:S:1:pos:R:3:forces:R:3 energy=15.505681984917068 pbc="F F F"
Kr       0.00000000       0.00000000       0.00000000       0.00000000       0.00000000      -0.53983784
Kr       0.00000000       0.00000000       0.39797980       0.00000000       0.00000000       0.53983784
2
Properties=species:S:1:pos:R:3:forces:R:3 energy=12.648232475536648 pbc="F F F"
Kr       0.00000000       0.00000000       0.00000000       0.00000000       0.00000000     -58.04590225
Kr       0.00000000       0.00000000       0.45757576       0.00000000       0.00000000      58.04590225
2
Properties=species:S:1:pos:R:3:forces:R:3 energy=11.056803760004469 pbc="F F F"
Kr       0.00000000       0.00000000       0.00000000       0.00000000       0.00000000     -81.50437927
Kr       0.00000000       0.00000000       0.51717172       0.00000000       0.00000000      81.50437927
2
Properties=species:S:1:pos:R:3:forces:R:3 energy=6.691665302133177 pbc="F F F"
Kr       0.00000000       0.00000000       0.00000000       0.00000000       0.00000000     -56.99921417
Kr       0.00000000       0.00000000       0.57676768       0.00000000       0.00000000      56.99921417
2
Properties=species:S:1:pos:R:3:forces:R:3 energy=4.12252069987868 pbc="F F F"
Kr       0.00000000       0.00000000       0.00000000       0.00000000       0.00000000     -30.24270058
Kr       0.00000000       0.00000000       0.63636364       0.00000000       0.00000000      30.24270058
2
Properties=species:S:1:pos:R:3:forces:R:3 energy=2.9169459069648056 pbc="F F F"
Kr       0.00000000       0.00000000       0.00000000       0.00000000       0.00000000     -14.36796284
Kr       0.00000000       0.00000000       0.69595960       0.00000000       0.00000000      14.36796284
2
Properties=species:S:1:pos:R:3:forces:R:3 energy=2.164150991654345 pbc="F F F"
Kr       0.00000000       0.00000000       0.00000000       0.00000000       0.00000000     -10.22622776
Kr       0.00000000       0.00000000       0.75555556       0.00000000       0.00000000      10.22622776
2
Properties=species:S:1:pos:R:3:forces:R:3 energy=1.6168930644098947 pbc="F F F"
Kr       0.00000000       0.00000000       0.00000000       0.00000000       0.00000000      -7.81914902
Kr       0.00000000       0.00000000       0.81515152       0.00000000       0.00000000       7.81914902
2
Properties=species:S:1:pos:R:3:forces:R:3 energy=1.2237462547500069 pbc="F F F"
Kr       0.00000000       0.00000000       0.00000000       0.00000000       0.00000000      -5.42558718
Kr       0.00000000       0.00000000       0.87474747       0.00000000       0.00000000       5.42558718
2
Properties=species:S:1:pos:R:3:forces:R:3 energy=0.9611262538507537 pbc="F F F"
Kr       0.00000000       0.00000000       0.00000000       0.00000000       0.00000000      -3.41057038
Kr       0.00000000       0.00000000       0.93434343       0.00000000       0.00000000       3.41057038
2
Properties=species:S:1:pos:R:3:forces:R:3 energy=0.803380271309788 pbc="F F F"
Kr       0.00000000       0.00000000       0.00000000       0.00000000       0.00000000      -2.11295652
Kr       0.00000000       0.00000000       0.99393939       0.00000000       0.00000000       2.11295652
2
Properties=species:S:1:pos:R:3:forces:R:3 energy=0.6832724523386785 pbc="F F F"
Kr       0.00000000       0.00000000       0.00000000       0.00000000       0.00000000      -1.96696067
Kr       0.00000000       0.00000000       1.05353535       0.00000000       0.00000000       1.96696067
2
Properties=species:S:1:pos:R:3:forces:R:3 energy=0.5734753956171564 pbc="F F F"
Kr       0.00000000       0.00000000       0.00000000       0.00000000       0.00000000      -1.68308067
Kr       0.00000000       0.00000000       1.11313131       0.00000000       0.00000000       1.68308067
2
Properties=species:S:1:pos:R:3:forces:R:3 energy=0.4793956265647477 pbc="F F F"
Kr       0.00000000       0.00000000       0.00000000       0.00000000       0.00000000      -1.34561276
Kr       0.00000000       0.00000000       1.17272727       0.00000000       0.00000000       1.34561276
2
Properties=species:S:1:pos:R:3:forces:R:3 energy=0.41658394231845725 pbc="F F F"
Kr       0.00000000       0.00000000       0.00000000       0.00000000       0.00000000      -0.73725444
Kr       0.00000000       0.00000000       1.23232323       0.00000000       0.00000000       0.73725444
2
Properties=species:S:1:pos:R:3:forces:R:3 energy=0.38276889339722275 pbc="F F F"
Kr       0.00000000       0.00000000       0.00000000       0.00000000       0.00000000      -0.36159968
Kr       0.00000000       0.00000000       1.29191919       0.00000000       0.00000000       0.36159968
2
Properties=species:S:1:pos:R:3:forces:R:3 energy=0.3675318476557221 pbc="F F F"
Kr       0.00000000       0.00000000       0.00000000       0.00000000       0.00000000      -0.17844532
Kr       0.00000000       0.00000000       1.35151515       0.00000000       0.00000000       0.17844532
2
Properties=species:S:1:pos:R:3:forces:R:3 energy=0.35723459063120067 pbc="F F F"
Kr       0.00000000       0.00000000       0.00000000       0.00000000       0.00000000      -0.12566590
Kr       0.00000000       0.00000000       1.41111111       0.00000000       0.00000000       0.12566590
2
Properties=species:S:1:pos:R:3:forces:R:3 energy=0.35170961460094086 pbc="F F F"
Kr       0.00000000       0.00000000       0.00000000       0.00000000       0.00000000      -0.06610709
Kr       0.00000000       0.00000000       1.47070707       0.00000000       0.00000000       0.06610709
2
Properties=species:S:1:pos:R:3:forces:R:3 energy=0.3487037641261102 pbc="F F F"
Kr       0.00000000       0.00000000       0.00000000       0.00000000       0.00000000      -0.04163651
Kr       0.00000000       0.00000000       1.53030303       0.00000000       0.00000000       0.04163651
2
Properties=species:S:1:pos:R:3:forces:R:3 energy=0.34890413137744414 pbc="F F F"
Kr       0.00000000       0.00000000       0.00000000       0.00000000       0.00000000       0.05334006
Kr       0.00000000       0.00000000       1.58989899       0.00000000       0.00000000      -0.05334006
2
Properties=species:S:1:pos:R:3:forces:R:3 energy=0.3536902267645433 pbc="F F F"
Kr       0.00000000       0.00000000       0.00000000       0.00000000       0.00000000       0.10399871
Kr       0.00000000       0.00000000       1.64949495       0.00000000       0.00000000      -0.10399871
2
Properties=species:S:1:pos:R:3:forces:R:3 energy=0.36177325598743526 pbc="F F F"
Kr       0.00000000       0.00000000       0.00000000       0.00000000       0.00000000       0.16950862
Kr       0.00000000       0.00000000       1.70909091       0.00000000       0.00000000      -0.16950862
2
Properties=species:S:1:pos:R:3:forces:R:3 energy=0.3717405009379912 pbc="F F F"
Kr       0.00000000       0.00000000       0.00000000       0.00000000       0.00000000       0.15984818
Kr       0.00000000       0.00000000       1.76868687       0.00000000       0.00000000      -0.15984818
2
Properties=species:S:1:pos:R:3:forces:R:3 energy=0.38289554795436787 pbc="F F F"
Kr       0.00000000       0.00000000       0.00000000       0.00000000       0.00000000       0.19118015
Kr       0.00000000       0.00000000       1.82828283       0.00000000       0.00000000      -0.19118015
2
Properties=species:S:1:pos:R:3:forces:R:3 energy=0.3931935575834109 pbc="F F F"
Kr       0.00000000       0.00000000       0.00000000       0.00000000       0.00000000       0.16225640
Kr       0.00000000       0.00000000       1.88787879       0.00000000       0.00000000      -0.16225640
2
Properties=species:S:1:pos:R:3:forces:R:3 energy=0.4033287412111712 pbc="F F F"
Kr       0.00000000       0.00000000       0.00000000       0.00000000       0.00000000       0.17117418
Kr       0.00000000       0.00000000       1.94747475       0.00000000       0.00000000      -0.17117418
2
Properties=species:S:1:pos:R:3:forces:R:3 energy=0.4136587455533841 pbc="F F F"
Kr       0.00000000       0.00000000       0.00000000       0.00000000       0.00000000       0.17578122
Kr       0.00000000       0.00000000       2.00707071       0.00000000       0.00000000      -0.17578122
2
Properties=species:S:1:pos:R:3:forces:R:3 energy=0.4228599908762695 pbc="F F F"
Kr       0.00000000       0.00000000       0.00000000       0.00000000       0.00000000       0.12531567
Kr       0.00000000       0.00000000       2.06666667       0.00000000       0.00000000      -0.12531567
2
Properties=species:S:1:pos:R:3:forces:R:3 energy=0.4294869221682117 pbc="F F F"
Kr       0.00000000       0.00000000       0.00000000       0.00000000       0.00000000       0.09885117
Kr       0.00000000       0.00000000       2.12626263       0.00000000       0.00000000      -0.09885117
2
Properties=species:S:1:pos:R:3:forces:R:3 energy=0.4343037555146613 pbc="F F F"
Kr       0.00000000       0.00000000       0.00000000       0.00000000       0.00000000       0.06455740
Kr       0.00000000       0.00000000       2.18585859       0.00000000       0.00000000      -0.06455740
2
Properties=species:S:1:pos:R:3:forces:R:3 energy=0.43682357816478634 pbc="F F F"
Kr       0.00000000       0.00000000       0.00000000       0.00000000       0.00000000       0.01194695
Kr       0.00000000       0.00000000       2.24545455       0.00000000       0.00000000      -0.01194695
2
Properties=species:S:1:pos:R:3:forces:R:3 energy=0.43515481963781905 pbc="F F F"
Kr       0.00000000       0.00000000       0.00000000       0.00000000       0.00000000      -0.06903128
Kr       0.00000000       0.00000000       2.30505051       0.00000000       0.00000000       0.06903128
2
Properties=species:S:1:pos:R:3:forces:R:3 energy=0.4289871965042579 pbc="F F F"
Kr       0.00000000       0.00000000       0.00000000       0.00000000       0.00000000      -0.13222328
Kr       0.00000000       0.00000000       2.36464646       0.00000000       0.00000000       0.13222328
2
Properties=species:S:1:pos:R:3:forces:R:3 energy=0.41947249992849434 pbc="F F F"
Kr       0.00000000       0.00000000       0.00000000       0.00000000       0.00000000      -0.19157623
Kr       0.00000000       0.00000000       2.42424242       0.00000000       0.00000000       0.19157623
2
Properties=species:S:1:pos:R:3:forces:R:3 energy=0.4057388970354152 pbc="F F F"
Kr       0.00000000       0.00000000       0.00000000       0.00000000       0.00000000      -0.26980391
Kr       0.00000000       0.00000000       2.48383838       0.00000000       0.00000000       0.26980391
2
Properties=species:S:1:pos:R:3:forces:R:3 energy=0.3873790672019065 pbc="F F F"
Kr       0.00000000       0.00000000       0.00000000       0.00000000       0.00000000      -0.34553927
Kr       0.00000000       0.00000000       2.54343434       0.00000000       0.00000000       0.34553927
2
Properties=species:S:1:pos:R:3:forces:R:3 energy=0.36478776791881773 pbc="F F F"
Kr       0.00000000       0.00000000       0.00000000       0.00000000       0.00000000      -0.40955082
Kr       0.00000000       0.00000000       2.60303030       0.00000000       0.00000000       0.40955082
2
Properties=species:S:1:pos:R:3:forces:R:3 energy=0.33897300410849124 pbc="F F F"
Kr       0.00000000       0.00000000       0.00000000       0.00000000       0.00000000      -0.45324802
Kr       0.00000000       0.00000000       2.66262626       0.00000000       0.00000000       0.45324802
2
Properties=species:S:1:pos:R:3:forces:R:3 energy=0.31117260670005675 pbc="F F F"
Kr       0.00000000       0.00000000       0.00000000       0.00000000       0.00000000      -0.47632658
Kr       0.00000000       0.00000000       2.72222222       0.00000000       0.00000000       0.47632658
2
Properties=species:S:1:pos:R:3:forces:R:3 energy=0.2825442663018446 pbc="F F F"
Kr       0.00000000       0.00000000       0.00000000       0.00000000       0.00000000      -0.48254105
Kr       0.00000000       0.00000000       2.78181818       0.00000000       0.00000000       0.48254105
2
Properties=species:S:1:pos:R:3:forces:R:3 energy=0.2537697140105665 pbc="F F F"
Kr       0.00000000       0.00000000       0.00000000       0.00000000       0.00000000      -0.48270324
Kr       0.00000000       0.00000000       2.84141414       0.00000000       0.00000000       0.48270324
2
Properties=species:S:1:pos:R:3:forces:R:3 energy=0.22506993901869088 pbc="F F F"
Kr       0.00000000       0.00000000       0.00000000       0.00000000       0.00000000      -0.47962898
Kr       0.00000000       0.00000000       2.90101010       0.00000000       0.00000000       0.47962898
2
Properties=species:S:1:pos:R:3:forces:R:3 energy=0.19673729136566462 pbc="F F F"
Kr       0.00000000       0.00000000       0.00000000       0.00000000       0.00000000      -0.46992570
Kr       0.00000000       0.00000000       2.96060606       0.00000000       0.00000000       0.46992570
2
Properties=species:S:1:pos:R:3:forces:R:3 energy=0.16918023177087518 pbc="F F F"
Kr       0.00000000       0.00000000       0.00000000       0.00000000       0.00000000      -0.45422813
Kr       0.00000000       0.00000000       3.02020202       0.00000000       0.00000000       0.45422813
2
Properties=species:S:1:pos:R:3:forces:R:3 energy=0.1426591480088953 pbc="F F F"
Kr       0.00000000       0.00000000       0.00000000       0.00000000       0.00000000      -0.43531200
Kr       0.00000000       0.00000000       3.07979798       0.00000000       0.00000000       0.43531200
2
Properties=species:S:1:pos:R:3:forces:R:3 energy=0.11733775353617104 pbc="F F F"
Kr       0.00000000       0.00000000       0.00000000       0.00000000       0.00000000      -0.41415340
Kr       0.00000000       0.00000000       3.13939394       0.00000000       0.00000000       0.41415340
2
Properties=species:S:1:pos:R:3:forces:R:3 energy=0.09333168845120406 pbc="F F F"
Kr       0.00000000       0.00000000       0.00000000       0.00000000       0.00000000      -0.39123103
Kr       0.00000000       0.00000000       3.19898990       0.00000000       0.00000000       0.39123103
2
Properties=species:S:1:pos:R:3:forces:R:3 energy=0.07072944647653587 pbc="F F F"
Kr       0.00000000       0.00000000       0.00000000       0.00000000       0.00000000      -0.36705047
Kr       0.00000000       0.00000000       3.25858586       0.00000000       0.00000000       0.36705047
2
Properties=species:S:1:pos:R:3:forces:R:3 energy=0.049606629388339665 pbc="F F F"
Kr       0.00000000       0.00000000       0.00000000       0.00000000       0.00000000      -0.34158951
Kr       0.00000000       0.00000000       3.31818182       0.00000000       0.00000000       0.34158951
2
Properties=species:S:1:pos:R:3:forces:R:3 energy=0.0300421262176666 pbc="F F F"
Kr       0.00000000       0.00000000       0.00000000       0.00000000       0.00000000      -0.31478280
Kr       0.00000000       0.00000000       3.37777778       0.00000000       0.00000000       0.31478280
2
Properties=species:S:1:pos:R:3:forces:R:3 energy=0.012108549580793507 pbc="F F F"
Kr       0.00000000       0.00000000       0.00000000       0.00000000       0.00000000      -0.28691253
Kr       0.00000000       0.00000000       3.43737374       0.00000000       0.00000000       0.28691253
2
Properties=species:S:1:pos:R:3:forces:R:3 energy=-0.004149681407032636 pbc="F F F"
Kr       0.00000000       0.00000000       0.00000000       0.00000000       0.00000000      -0.25862527
Kr       0.00000000       0.00000000       3.49696970       0.00000000       0.00000000       0.25862527
2
Properties=species:S:1:pos:R:3:forces:R:3 energy=-0.018724941623464185 pbc="F F F"
Kr       0.00000000       0.00000000       0.00000000       0.00000000       0.00000000      -0.23070721
Kr       0.00000000       0.00000000       3.55656566       0.00000000       0.00000000       0.23070721
2
Properties=species:S:1:pos:R:3:forces:R:3 energy=-0.03166541957240444 pbc="F F F"
Kr       0.00000000       0.00000000       0.00000000       0.00000000       0.00000000      -0.20379145
Kr       0.00000000       0.00000000       3.61616162       0.00000000       0.00000000       0.20379145
2
Properties=species:S:1:pos:R:3:forces:R:3 energy=-0.04304262276516255 pbc="F F F"
Kr       0.00000000       0.00000000       0.00000000       0.00000000       0.00000000      -0.17828573
Kr       0.00000000       0.00000000       3.67575758       0.00000000       0.00000000       0.17828573
2
Properties=species:S:1:pos:R:3:forces:R:3 energy=-0.05294941176711101 pbc="F F F"
Kr       0.00000000       0.00000000       0.00000000       0.00000000       0.00000000      -0.15448317
Kr       0.00000000       0.00000000       3.73535354       0.00000000       0.00000000       0.15448317
2
Properties=species:S:1:pos:R:3:forces:R:3 energy=-0.06149321835542883 pbc="F F F"
Kr       0.00000000       0.00000000       0.00000000       0.00000000       0.00000000      -0.13262022
Kr       0.00000000       0.00000000       3.79494949       0.00000000       0.00000000       0.13262022
2
Properties=species:S:1:pos:R:3:forces:R:3 energy=-0.06880071727210806 pbc="F F F"
Kr       0.00000000       0.00000000       0.00000000       0.00000000       0.00000000      -0.11283443
Kr       0.00000000       0.00000000       3.85454545       0.00000000       0.00000000       0.11283443
2
Properties=species:S:1:pos:R:3:forces:R:3 energy=-0.07498528250386542 pbc="F F F"
Kr       0.00000000       0.00000000       0.00000000       0.00000000       0.00000000      -0.09511635
Kr       0.00000000       0.00000000       3.91414141       0.00000000       0.00000000       0.09511635
2
Properties=species:S:1:pos:R:3:forces:R:3 energy=-0.08017452029225434 pbc="F F F"
Kr       0.00000000       0.00000000       0.00000000       0.00000000       0.00000000      -0.07932764
Kr       0.00000000       0.00000000       3.97373737       0.00000000       0.00000000       0.07932764
2
Properties=species:S:1:pos:R:3:forces:R:3 energy=-0.08447394714626563 pbc="F F F"
Kr       0.00000000       0.00000000       0.00000000       0.00000000       0.00000000      -0.06527623
Kr       0.00000000       0.00000000       4.03333333       0.00000000       0.00000000       0.06527623
2
Properties=species:S:1:pos:R:3:forces:R:3 energy=-0.0879849924449198 pbc="F F F"
Kr       0.00000000       0.00000000       0.00000000       0.00000000       0.00000000      -0.05279317
Kr       0.00000000       0.00000000       4.09292929       0.00000000       0.00000000       0.05279317
2
Properties=species:S:1:pos:R:3:forces:R:3 energy=-0.09079634250850989 pbc="F F F"
Kr       0.00000000       0.00000000       0.00000000       0.00000000       0.00000000      -0.04176841
Kr       0.00000000       0.00000000       4.15252525       0.00000000       0.00000000       0.04176841
2
Properties=species:S:1:pos:R:3:forces:R:3 energy=-0.09299246823056162 pbc="F F F"
Kr       0.00000000       0.00000000       0.00000000       0.00000000       0.00000000      -0.03213646
Kr       0.00000000       0.00000000       4.21212121       0.00000000       0.00000000       0.03213646
2
Properties=species:S:1:pos:R:3:forces:R:3 energy=-0.09465165199689102 pbc="F F F"
Kr       0.00000000       0.00000000       0.00000000       0.00000000       0.00000000      -0.02384046
Kr       0.00000000       0.00000000       4.27171717       0.00000000       0.00000000       0.02384046
2
Properties=species:S:1:pos:R:3:forces:R:3 energy=-0.09585838941149533 pbc="F F F"
Kr       0.00000000       0.00000000       0.00000000       0.00000000       0.00000000      -0.01680246
Kr       0.00000000       0.00000000       4.33131313       0.00000000       0.00000000       0.01680246
2
Properties=species:S:1:pos:R:3:forces:R:3 energy=-0.09667762266698826 pbc="F F F"
Kr       0.00000000       0.00000000       0.00000000       0.00000000       0.00000000      -0.01091172
Kr       0.00000000       0.00000000       4.39090909       0.00000000       0.00000000       0.01091172
2
Properties=species:S:1:pos:R:3:forces:R:3 energy=-0.09718049846265384 pbc="F F F"
Kr       0.00000000       0.00000000       0.00000000       0.00000000       0.00000000      -0.00603448
Kr       0.00000000       0.00000000       4.45050505       0.00000000       0.00000000       0.00603448
2
Properties=species:S:1:pos:R:3:forces:R:3 energy=-0.0974148436984147 pbc="F F F"
Kr       0.00000000       0.00000000       0.00000000       0.00000000       0.00000000      -0.00203253
Kr       0.00000000       0.00000000       4.51010101       0.00000000       0.00000000       0.00203253
2
Properties=species:S:1:pos:R:3:forces:R:3 energy=-0.09743567988513495 pbc="F F F"
Kr       0.00000000       0.00000000       0.00000000       0.00000000       0.00000000       0.00121984
Kr       0.00000000       0.00000000       4.56969697       0.00000000       0.00000000      -0.00121984
2
Properties=species:S:1:pos:R:3:forces:R:3 energy=-0.0972843333845459 pbc="F F F"
Kr       0.00000000       0.00000000       0.00000000       0.00000000       0.00000000       0.00382670
Kr       0.00000000       0.00000000       4.62929293       0.00000000       0.00000000      -0.00382670
2
Properties=species:S:1:pos:R:3:forces:R:3 energy=-0.0969913011839286 pbc="F F F"
Kr       0.00000000       0.00000000       0.00000000       0.00000000       0.00000000       0.00587129
Kr       0.00000000       0.00000000       4.68888889       0.00000000       0.00000000      -0.00587129
2
Properties=species:S:1:pos:R:3:forces:R:3 energy=-0.09659444198412383 pbc="F F F"
Kr       0.00000000       0.00000000       0.00000000       0.00000000       0.00000000       0.00742089
Kr       0.00000000       0.00000000       4.74848485       0.00000000       0.00000000      -0.00742089
2
Properties=species:S:1:pos:R:3:forces:R:3 energy=-0.0961151478048661 pbc="F F F"
Kr       0.00000000       0.00000000       0.00000000       0.00000000       0.00000000       0.00853094
Kr       0.00000000       0.00000000       4.80808081       0.00000000       0.00000000      -0.00853094
2
Properties=species:S:1:pos:R:3:forces:R:3 energy=-0.095584176346658 pbc="F F F"
Kr       0.00000000       0.00000000       0.00000000       0.00000000       0.00000000       0.00924701
Kr       0.00000000       0.00000000       4.86767677       0.00000000       0.00000000      -0.00924701
2
Properties=species:S:1:pos:R:3:forces:R:3 energy=-0.09502068718285327 pbc="F F F"
Kr       0.00000000       0.00000000       0.00000000       0.00000000       0.00000000       0.00960486
Kr       0.00000000       0.00000000       4.92727273       0.00000000       0.00000000      -0.00960486
2
Properties=species:S:1:pos:R:3:forces:R:3 energy=-0.09444658132446883 pbc="F F F"
Kr       0.00000000       0.00000000       0.00000000       0.00000000       0.00000000       0.00963285
Kr       0.00000000       0.00000000       4.98686869       0.00000000       0.00000000      -0.00963285
2
Properties=species:S:1:pos:R:3:forces:R:3 energy=-0.0938779648767137 pbc="F F F"
Kr       0.00000000       0.00000000       0.00000000       0.00000000       0.00000000       0.00935779
Kr       0.00000000       0.00000000       5.04646465       0.00000000       0.00000000      -0.00935779
2
Properties=species:S:1:pos:R:3:forces:R:3 energy=-0.09333373606761447 pbc="F F F"
Kr       0.00000000       0.00000000       0.00000000       0.00000000       0.00000000       0.00881347
Kr       0.00000000       0.00000000       5.10606061       0.00000000       0.00000000      -0.00881347
2
Properties=species:S:1:pos:R:3:forces:R:3 energy=-0.09283277372228702 pbc="F F F"
Kr       0.00000000       0.00000000       0.00000000       0.00000000       0.00000000       0.00804910
Kr       0.00000000       0.00000000       5.16565657       0.00000000       0.00000000      -0.00804910
2
Properties=species:S:1:pos:R:3:forces:R:3 energy=-0.09237964046372363 pbc="F F F"
Kr       0.00000000       0.00000000       0.00000000       0.00000000       0.00000000       0.00713302
Kr       0.00000000       0.00000000       5.22525253       0.00000000       0.00000000      -0.00713302
2
Properties=species:S:1:pos:R:3:forces:R:3 energy=-0.09198557027937598 pbc="F F F"
Kr       0.00000000       0.00000000       0.00000000       0.00000000       0.00000000       0.00614907
Kr       0.00000000       0.00000000       5.28484848       0.00000000       0.00000000      -0.00614907
2
Properties=species:S:1:pos:R:3:forces:R:3 energy=-0.09164561161980513 pbc="F F F"
Kr       0.00000000       0.00000000       0.00000000       0.00000000       0.00000000       0.00518647
Kr       0.00000000       0.00000000       5.34444444       0.00000000       0.00000000      -0.00518647
2
Properties=species:S:1:pos:R:3:forces:R:3 energy=-0.09136341778319698 pbc="F F F"
Kr       0.00000000       0.00000000       0.00000000       0.00000000       0.00000000       0.00432578
Kr       0.00000000       0.00000000       5.40404040       0.00000000       0.00000000      -0.00432578
2
Properties=species:S:1:pos:R:3:forces:R:3 energy=-0.09112551433988576 pbc="F F F"
Kr       0.00000000       0.00000000       0.00000000       0.00000000       0.00000000       0.00362532
Kr       0.00000000       0.00000000       5.46363636       0.00000000       0.00000000      -0.00362532
2
Properties=species:S:1:pos:R:3:forces:R:3 energy=-0.09092800359712432 pbc="F F F"
Kr       0.00000000       0.00000000       0.00000000       0.00000000       0.00000000       0.00311275
Kr       0.00000000       0.00000000       5.52323232       0.00000000       0.00000000      -0.00311275
2
Properties=species:S:1:pos:R:3:forces:R:3 energy=-0.09075273105670717 pbc="F F F"
Kr       0.00000000       0.00000000       0.00000000       0.00000000       0.00000000       0.00278241
Kr       0.00000000       0.00000000       5.58282828       0.00000000       0.00000000      -0.00278241
2
Properties=species:S:1:pos:R:3:forces:R:3 energy=-0.09059397998029674 pbc="F F F"
Kr       0.00000000       0.00000000       0.00000000       0.00000000       0.00000000       0.00260102
Kr       0.00000000       0.00000000       5.64242424       0.00000000       0.00000000      -0.00260102
2
Properties=species:S:1:pos:R:3:forces:R:3 energy=-0.09044036583261132 pbc="F F F"
Kr       0.00000000       0.00000000       0.00000000       0.00000000       0.00000000       0.00251778
Kr       0.00000000       0.00000000       5.70202020       0.00000000       0.00000000      -0.00251778
2
Properties=species:S:1:pos:R:3:forces:R:3 energy=-0.09029199746939821 pbc="F F F"
Kr       0.00000000       0.00000000       0.00000000       0.00000000       0.00000000       0.00247712
Kr       0.00000000       0.00000000       5.76161616       0.00000000       0.00000000      -0.00247712
2
Properties=species:S:1:pos:R:3:forces:R:3 energy=-0.09014616707296562 pbc="F F F"
Kr       0.00000000       0.00000000       0.00000000       0.00000000       0.00000000       0.00243189
Kr       0.00000000       0.00000000       5.82121212       0.00000000       0.00000000      -0.00243189
2
Properties=species:S:1:pos:R:3:forces:R:3 energy=-0.09000117257101464 pbc="F F F"
Kr       0.00000000       0.00000000       0.00000000       0.00000000       0.00000000       0.00235303
Kr       0.00000000       0.00000000       5.88080808       0.00000000       0.00000000      -0.00235303
2
Properties=species:S:1:pos:R:3:forces:R:3 energy=-0.08986584527231481 pbc="F F F"
Kr       0.00000000       0.00000000       0.00000000       0.00000000       0.00000000       0.00223533
Kr       0.00000000       0.00000000       5.94040404       0.00000000       0.00000000      -0.00223533
2
Properties=species:S:1:pos:R:3:forces:R:3 energy=-0.08973666603886565 pbc="F F F"
Kr       0.00000000       0.00000000       0.00000000       0.00000000       0.00000000       0.00209550
Kr       0.00000000       0.00000000       6.00000000       0.00000000       0.00000000      -0.00209550
