2
Properties=species:S:1:pos:R:3:forces:R:3 energy=-50.98575308505422 pbc="F F F"
Kr       0.00000000       0.00000000       0.00000000       0.00000000       0.00000000     569.69036865
Kr       0.00000000       0.00000000       0.18000000       0.00000000       0.00000000    -569.69036865
2
Properties=species:S:1:pos:R:3:forces:R:3 energy=-21.612849258033858 pbc="F F F"
Kr       0.00000000       0.00000000       0.00000000       0.00000000       0.00000000     418.98474121
Kr       0.00000000       0.00000000       0.23878788       0.00000000       0.00000000    -418.98474121
2
Properties=species:S:1:pos:R:3:forces:R:3 energy=-0.06927682902375139 pbc="F F F"
Kr       0.00000000       0.00000000       0.00000000       0.00000000       0.00000000     313.84268188
Kr       0.00000000       0.00000000       0.29757576       0.00000000       0.00000000    -313.84268188
2
Properties=species:S:1:pos:R:3:forces:R:3 energy=12.626332270024296 pbc="F F F"
Kr       0.00000000       0.00000000       0.00000000       0.00000000       0.00000000     122.29065704
Kr       0.00000000       0.00000000       0.35636364       0.00000000       0.00000000    -122.29065704
2
Properties=species:S:1:pos:R:3:forces:R:3 energy=14.98005294450579 pbc="F F F"
Kr       0.00000000       0.00000000       0.00000000       0.00000000       0.00000000     -51.85681534
Kr       0.00000000       0.00000000       0.41515152       0.00000000       0.00000000      51.85681534
2
Properties=species:S:1:pos:R:3:forces:R:3 energy=12.21726706145613 pbc="F F F"
Kr       0.00000000       0.00000000       0.00000000       0.00000000       0.00000000      14.63338280
Kr       0.00000000       0.00000000       0.47393939       0.00000000       0.00000000     -14.63338280
2
Properties=species:S:1:pos:R:3:forces:R:3 energy=9.759449074494604 pbc="F F F"
Kr       0.00000000       0.00000000       0.00000000       0.00000000       0.00000000     -81.99066925
Kr       0.00000000       0.00000000       0.53272727       0.00000000       0.00000000      81.99066925
2
Properties=species:S:1:pos:R:3:forces:R:3 energy=5.906765135861887 pbc="F F F"
Kr       0.00000000       0.00000000       0.00000000       0.00000000       0.00000000     -49.63464355
Kr       0.00000000       0.00000000       0.59151515       0.00000000       0.00000000      49.63464355
2
Properties=species:S:1:pos:R:3:forces:R:3 energy=3.735388093239225 pbc="F F F"
Kr       0.00000000       0.00000000       0.00000000       0.00000000       0.00000000     -25.67284584
Kr       0.00000000       0.00000000       0.65030303       0.00000000       0.00000000      25.67284584
2
Properties=species:S:1:pos:R:3:forces:R:3 energy=2.73238995660035 pbc="F F F"
Kr       0.00000000       0.00000000       0.00000000       0.00000000       0.00000000     -13.83983707
Kr       0.00000000       0.00000000       0.70909091       0.00000000       0.00000000      13.83983707
2
Properties=species:S:1:pos:R:3:forces:R:3 energy=2.0424059612917933 pbc="F F F"
Kr       0.00000000       0.00000000       0.00000000       0.00000000       0.00000000      -9.63295841
Kr       0.00000000       0.00000000       0.76787879       0.00000000       0.00000000       9.63295841
2
Properties=species:S:1:pos:R:3:forces:R:3 energy=1.5294879705107205 pbc="F F F"
Kr       0.00000000       0.00000000       0.00000000       0.00000000       0.00000000      -7.39408588
Kr       0.00000000       0.00000000       0.82666667       0.00000000       0.00000000       7.39408588
2
Properties=species:S:1:pos:R:3:forces:R:3 energy=1.167376615807863 pbc="F F F"
Kr       0.00000000       0.00000000       0.00000000       0.00000000       0.00000000      -5.09345293
Kr       0.00000000       0.00000000       0.88545455       0.00000000       0.00000000       5.09345293
2
Properties=species:S:1:pos:R:3:forces:R:3 energy=0.9288922488577293 pbc="F F F"
Kr       0.00000000       0.00000000       0.00000000       0.00000000       0.00000000      -3.10177469
Kr       0.00000000       0.00000000       0.94424242       0.00000000       0.00000000       3.10177469
2
Properties=species:S:1:pos:R:3:forces:R:3 energy=0.7845854859652482 pbc="F F F"
Kr       0.00000000       0.00000000       0.00000000       0.00000000       0.00000000      -2.02960229
Kr       0.00000000       0.00000000       1.00303030       0.00000000       0.00000000       2.02960229
2
Properties=species:S:1:pos:R:3:forces:R:3 energy=0.6671365711769002 pbc="F F F"
Kr       0.00000000       0.00000000       0.00000000       0.00000000       0.00000000      -1.92945302
Kr       0.00000000       0.00000000       1.06181818       0.00000000       0.00000000       1.92945302
2
Properties=species:S:1:pos:R:3:forces:R:3 energy=0.5609911872658742 pbc="F F F"
Kr       0.00000000       0.00000000       0.00000000       0.00000000       0.00000000      -1.66216671
Kr       0.00000000       0.00000000       1.12060606       0.00000000       0.00000000       1.66216671
2
Properties=species:S:1:pos:R:3:forces:R:3 energy=0.47073093770364904 pbc="F F F"
Kr       0.00000000       0.00000000       0.00000000       0.00000000       0.00000000      -1.25852704
Kr       0.00000000       0.00000000       1.17939394       0.00000000       0.00000000       1.25852704
2
Properties=species:S:1:pos:R:3:forces:R:3 energy=0.41237391370662435 pbc="F F F"
Kr       0.00000000       0.00000000       0.00000000       0.00000000       0.00000000      -0.70412481
Kr       0.00000000       0.00000000       1.23818182       0.00000000       0.00000000       0.70412481
2
Properties=species:S:1:pos:R:3:forces:R:3 energy=0.3809535916790403 pbc="F F F"
Kr       0.00000000       0.00000000       0.00000000       0.00000000       0.00000000      -0.35582232
Kr       0.00000000       0.00000000       1.29696970       0.00000000       0.00000000       0.35582232
2
Properties=species:S:1:pos:R:3:forces:R:3 energy=0.366773242422695 pbc="F F F"
Kr       0.00000000       0.00000000       0.00000000       0.00000000       0.00000000      -0.17957760
Kr       0.00000000       0.00000000       1.35575758       0.00000000       0.00000000       0.17957760
2
Properties=species:S:1:pos:R:3:forces:R:3 energy=0.3568164534647749 pbc="F F F"
Kr       0.00000000       0.00000000       0.00000000       0.00000000       0.00000000      -0.11856695
Kr       0.00000000       0.00000000       1.41454545       0.00000000       0.00000000       0.11856695
2
Properties=species:S:1:pos:R:3:forces:R:3 energy=0.3515394010785592 pbc="F F F"
Kr       0.00000000       0.00000000       0.00000000       0.00000000       0.00000000      -0.06315020
Kr       0.00000000       0.00000000       1.47333333       0.00000000       0.00000000       0.06315020
2
Properties=species:S:1:pos:R:3:forces:R:3 energy=0.34862980201759836 pbc="F F F"
Kr       0.00000000       0.00000000       0.00000000       0.00000000       0.00000000      -0.04020846
Kr       0.00000000       0.00000000       1.53212121       0.00000000       0.00000000       0.04020846
2
Properties=species:S:1:pos:R:3:forces:R:3 energy=0.34895972959178906 pbc="F F F"
Kr       0.00000000       0.00000000       0.00000000       0.00000000       0.00000000       0.05462961
Kr       0.00000000       0.00000000       1.59090909       0.00000000       0.00000000      -0.05462961
2
Properties=species:S:1:pos:R:3:forces:R:3 energy=0.3537103236172751 pbc="F F F"
Kr       0.00000000       0.00000000       0.00000000       0.00000000       0.00000000       0.10419179
Kr       0.00000000       0.00000000       1.64969697       0.00000000       0.00000000      -0.10419179
2
Properties=species:S:1:pos:R:3:forces:R:3 energy=0.361670959409808 pbc="F F F"
Kr       0.00000000       0.00000000       0.00000000       0.00000000       0.00000000       0.16891213
Kr       0.00000000       0.00000000       1.70848485       0.00000000       0.00000000      -0.16891213
2
Properties=species:S:1:pos:R:3:forces:R:3 energy=0.3715147337106246 pbc="F F F"
Kr       0.00000000       0.00000000       0.00000000       0.00000000       0.00000000       0.15866053
Kr       0.00000000       0.00000000       1.76727273       0.00000000       0.00000000      -0.15866053
2
Properties=species:S:1:pos:R:3:forces:R:3 energy=0.38247175875383066 pbc="F F F"
Kr       0.00000000       0.00000000       0.00000000       0.00000000       0.00000000       0.19215368
Kr       0.00000000       0.00000000       1.82606061       0.00000000       0.00000000      -0.19215368
2
Properties=species:S:1:pos:R:3:forces:R:3 energy=0.3927041202381768 pbc="F F F"
Kr       0.00000000       0.00000000       0.00000000       0.00000000       0.00000000       0.16148114
Kr       0.00000000       0.00000000       1.88484848       0.00000000       0.00000000      -0.16148114
2
Properties=species:S:1:pos:R:3:forces:R:3 energy=0.4026694676340908 pbc="F F F"
Kr       0.00000000       0.00000000       0.00000000       0.00000000       0.00000000       0.17144497
Kr       0.00000000       0.00000000       1.94363636       0.00000000       0.00000000      -0.17144497
2
Properties=species:S:1:pos:R:3:forces:R:3 energy=0.41284080740354956 pbc="F F F"
Kr       0.00000000       0.00000000       0.00000000       0.00000000       0.00000000       0.17623752
Kr       0.00000000       0.00000000       2.00242424       0.00000000       0.00000000      -0.17623752
2
Properties=species:S:1:pos:R:3:forces:R:3 energy=0.4221643894556951 pbc="F F F"
Kr       0.00000000       0.00000000       0.00000000       0.00000000       0.00000000       0.13008162
Kr       0.00000000       0.00000000       2.06121212       0.00000000       0.00000000      -0.13008162
2
Properties=species:S:1:pos:R:3:forces:R:3 energy=0.42885701372139395 pbc="F F F"
Kr       0.00000000       0.00000000       0.00000000       0.00000000       0.00000000       0.10216100
Kr       0.00000000       0.00000000       2.12000000       0.00000000       0.00000000      -0.10216100
2
Properties=species:S:1:pos:R:3:forces:R:3 energy=0.4338363713267729 pbc="F F F"
Kr       0.00000000       0.00000000       0.00000000       0.00000000       0.00000000       0.06806424
Kr       0.00000000       0.00000000       2.17878788       0.00000000       0.00000000      -0.06806424
2
Properties=species:S:1:pos:R:3:forces:R:3 energy=0.43669368112285795 pbc="F F F"
Kr       0.00000000       0.00000000       0.00000000       0.00000000       0.00000000       0.02150481
Kr       0.00000000       0.00000000       2.23757576       0.00000000       0.00000000      -0.02150481
2
Properties=species:S:1:pos:R:3:forces:R:3 energy=0.4357061127942647 pbc="F F F"
Kr       0.00000000       0.00000000       0.00000000       0.00000000       0.00000000      -0.05713257
Kr       0.00000000       0.00000000       2.29636364       0.00000000       0.00000000       0.05713257
2
Properties=species:S:1:pos:R:3:forces:R:3 energy=0.43020185798219757 pbc="F F F"
Kr       0.00000000       0.00000000       0.00000000       0.00000000       0.00000000      -0.12424196
Kr       0.00000000       0.00000000       2.35515152       0.00000000       0.00000000       0.12424196
2
Properties=species:S:1:pos:R:3:forces:R:3 energy=0.42138221971994755 pbc="F F F"
Kr       0.00000000       0.00000000       0.00000000       0.00000000       0.00000000      -0.17923580
Kr       0.00000000       0.00000000       2.41393939       0.00000000       0.00000000       0.17923580
2
Properties=species:S:1:pos:R:3:forces:R:3 energy=0.4086575767023261 pbc="F F F"
Kr       0.00000000       0.00000000       0.00000000       0.00000000       0.00000000      -0.25518119
Kr       0.00000000       0.00000000       2.47272727       0.00000000       0.00000000       0.25518119
2
Properties=species:S:1:pos:R:3:forces:R:3 energy=0.3914097512476291 pbc="F F F"
Kr       0.00000000       0.00000000       0.00000000       0.00000000       0.00000000      -0.33087623
Kr       0.00000000       0.00000000       2.53151515       0.00000000       0.00000000       0.33087623
2
Properties=species:S:1:pos:R:3:forces:R:3 energy=0.36992471545037053 pbc="F F F"
Kr       0.00000000       0.00000000       0.00000000       0.00000000       0.00000000      -0.39750949
Kr       0.00000000       0.00000000       2.59030303       0.00000000       0.00000000       0.39750949
2
Properties=species:S:1:pos:R:3:forces:R:3 energy=0.34505493978812063 pbc="F F F"
Kr       0.00000000       0.00000000       0.00000000       0.00000000       0.00000000      -0.44512954
Kr       0.00000000       0.00000000       2.64909091       0.00000000       0.00000000       0.44512954
2
Properties=species:S:1:pos:R:3:forces:R:3 energy=0.3179790576903046 pbc="F F F"
Kr       0.00000000       0.00000000       0.00000000       0.00000000       0.00000000      -0.47262749
Kr       0.00000000       0.00000000       2.70787879       0.00000000       0.00000000       0.47262749
2
Properties=species:S:1:pos:R:3:forces:R:3 energy=0.28984897119508923 pbc="F F F"
Kr       0.00000000       0.00000000       0.00000000       0.00000000       0.00000000      -0.48194504
Kr       0.00000000       0.00000000       2.76666667       0.00000000       0.00000000       0.48194504
2
Properties=species:S:1:pos:R:3:forces:R:3 energy=0.26147511625021325 pbc="F F F"
Kr       0.00000000       0.00000000       0.00000000       0.00000000       0.00000000      -0.48286620
Kr       0.00000000       0.00000000       2.82545455       0.00000000       0.00000000       0.48286620
2
Properties=species:S:1:pos:R:3:forces:R:3 energy=0.2331223098850117 pbc="F F F"
Kr       0.00000000       0.00000000       0.00000000       0.00000000       0.00000000      -0.48104939
Kr       0.00000000       0.00000000       2.88424242       0.00000000       0.00000000       0.48104939
2
Properties=species:S:1:pos:R:3:forces:R:3 energy=0.2050285363672521 pbc="F F F"
Kr       0.00000000       0.00000000       0.00000000       0.00000000       0.00000000      -0.47353753
Kr       0.00000000       0.00000000       2.94303030       0.00000000       0.00000000       0.47353753
2
Properties=species:S:1:pos:R:3:forces:R:3 energy=0.17757748622667258 pbc="F F F"
Kr       0.00000000       0.00000000       0.00000000       0.00000000       0.00000000      -0.45951673
Kr       0.00000000       0.00000000       3.00181818       0.00000000       0.00000000       0.45951673
2
Properties=species:S:1:pos:R:3:forces:R:3 energy=0.15107440477676048 pbc="F F F"
Kr       0.00000000       0.00000000       0.00000000       0.00000000       0.00000000      -0.44166282
Kr       0.00000000       0.00000000       3.06060606       0.00000000       0.00000000       0.44166282
2
Properties=species:S:1:pos:R:3:forces:R:3 energy=0.12569167565791867 pbc="F F F"
Kr       0.00000000       0.00000000       0.00000000       0.00000000       0.00000000      -0.42148426
Kr       0.00000000       0.00000000       3.11939394       0.00000000       0.00000000       0.42148426
2
Properties=species:S:1:pos:R:3:forces:R:3 energy=0.1015555481794598 pbc="F F F"
Kr       0.00000000       0.00000000       0.00000000       0.00000000       0.00000000      -0.39939204
Kr       0.00000000       0.00000000       3.17818182       0.00000000       0.00000000       0.39939204
2
Properties=species:S:1:pos:R:3:forces:R:3 energy=0.07876135492698086 pbc="F F F"
Kr       0.00000000       0.00000000       0.00000000       0.00000000       0.00000000      -0.37595969
Kr       0.00000000       0.00000000       3.23696970       0.00000000       0.00000000       0.37595969
2
Properties=species:S:1:pos:R:3:forces:R:3 energy=0.05737631259669161 pbc="F F F"
Kr       0.00000000       0.00000000       0.00000000       0.00000000       0.00000000      -0.35133019
Kr       0.00000000       0.00000000       3.29575758       0.00000000       0.00000000       0.35133019
2
Properties=species:S:1:pos:R:3:forces:R:3 energy=0.03747763728984936 pbc="F F F"
Kr       0.00000000       0.00000000       0.00000000       0.00000000       0.00000000      -0.32538411
Kr       0.00000000       0.00000000       3.35454545       0.00000000       0.00000000       0.32538411
2
Properties=species:S:1:pos:R:3:forces:R:3 energy=0.01914300776959487 pbc="F F F"
Kr       0.00000000       0.00000000       0.00000000       0.00000000       0.00000000      -0.29824820
Kr       0.00000000       0.00000000       3.41333333       0.00000000       0.00000000       0.29824820
2
Properties=species:S:1:pos:R:3:forces:R:3 energy=0.002425697068816429 pbc="F F F"
Kr       0.00000000       0.00000000       0.00000000       0.00000000       0.00000000      -0.27041909
Kr       0.00000000       0.00000000       3.47212121       0.00000000       0.00000000       0.27041909
2
Properties=species:S:1:pos:R:3:forces:R:3 energy=-0.012653936134877357 pbc="F F F"
Kr       0.00000000       0.00000000       0.00000000       0.00000000       0.00000000      -0.24263480
Kr       0.00000000       0.00000000       3.53090909       0.00000000       0.00000000       0.24263480
2
Properties=species:S:1:pos:R:3:forces:R:3 energy=-0.026117032171916275 pbc="F F F"
Kr       0.00000000       0.00000000       0.00000000       0.00000000       0.00000000      -0.21559003
Kr       0.00000000       0.00000000       3.58969697       0.00000000       0.00000000       0.21559003
2
Properties=species:S:1:pos:R:3:forces:R:3 energy=-0.03802524819605278 pbc="F F F"
Kr       0.00000000       0.00000000       0.00000000       0.00000000       0.00000000      -0.18976259
Kr       0.00000000       0.00000000       3.64848485       0.00000000       0.00000000       0.18976259
2
Properties=species:S:1:pos:R:3:forces:R:3 energy=-0.048457768630459516 pbc="F F F"
Kr       0.00000000       0.00000000       0.00000000       0.00000000       0.00000000      -0.16546994
Kr       0.00000000       0.00000000       3.70727273       0.00000000       0.00000000       0.16546994
2
Properties=species:S:1:pos:R:3:forces:R:3 energy=-0.05751411708943521 pbc="F F F"
Kr       0.00000000       0.00000000       0.00000000       0.00000000       0.00000000      -0.14296407
Kr       0.00000000       0.00000000       3.76606061       0.00000000       0.00000000       0.14296407
2
Properties=species:S:1:pos:R:3:forces:R:3 energy=-0.06530737136832576 pbc="F F F"
Kr       0.00000000       0.00000000       0.00000000       0.00000000       0.00000000      -0.12243114
Kr       0.00000000       0.00000000       3.82484848       0.00000000       0.00000000       0.12243114
2
Properties=species:S:1:pos:R:3:forces:R:3 energy=-0.07194878744504224 pbc="F F F"
Kr       0.00000000       0.00000000       0.00000000       0.00000000       0.00000000      -0.10393342
Kr       0.00000000       0.00000000       3.88363636       0.00000000       0.00000000       0.10393342
2
Properties=species:S:1:pos:R:3:forces:R:3 energy=-0.07756489592566898 pbc="F F F"
Kr       0.00000000       0.00000000       0.00000000       0.00000000       0.00000000      -0.08739439
Kr       0.00000000       0.00000000       3.94242424       0.00000000       0.00000000       0.08739439
2
Properties=species:S:1:pos:R:3:forces:R:3 energy=-0.08226303355272054 pbc="F F F"
Kr       0.00000000       0.00000000       0.00000000       0.00000000       0.00000000      -0.07264531
Kr       0.00000000       0.00000000       4.00121212       0.00000000       0.00000000       0.07264531
2
Properties=species:S:1:pos:R:3:forces:R:3 energy=-0.08613888073283069 pbc="F F F"
Kr       0.00000000       0.00000000       0.00000000       0.00000000       0.00000000      -0.05950467
Kr       0.00000000       0.00000000       4.06000000       0.00000000       0.00000000       0.05950467
2
Properties=species:S:1:pos:R:3:forces:R:3 energy=-0.08928784543992851 pbc="F F F"
Kr       0.00000000       0.00000000       0.00000000       0.00000000       0.00000000      -0.04783504
Kr       0.00000000       0.00000000       4.11878788       0.00000000       0.00000000       0.04783504
2
Properties=species:S:1:pos:R:3:forces:R:3 energy=-0.09178875888501713 pbc="F F F"
Kr       0.00000000       0.00000000       0.00000000       0.00000000       0.00000000      -0.03755311
Kr       0.00000000       0.00000000       4.17757576       0.00000000       0.00000000       0.03755311
2
Properties=species:S:1:pos:R:3:forces:R:3 energy=-0.0937276722326183 pbc="F F F"
Kr       0.00000000       0.00000000       0.00000000       0.00000000       0.00000000      -0.02860428
Kr       0.00000000       0.00000000       4.23636364       0.00000000       0.00000000       0.02860428
2
Properties=species:S:1:pos:R:3:forces:R:3 energy=-0.09517683854390126 pbc="F F F"
Kr       0.00000000       0.00000000       0.00000000       0.00000000       0.00000000      -0.02092826
Kr       0.00000000       0.00000000       4.29515152       0.00000000       0.00000000       0.02092826
2
Properties=species:S:1:pos:R:3:forces:R:3 energy=-0.09621000166005557 pbc="F F F"
Kr       0.00000000       0.00000000       0.00000000       0.00000000       0.00000000      -0.01443783
Kr       0.00000000       0.00000000       4.35393939       0.00000000       0.00000000       0.01443783
2
Properties=species:S:1:pos:R:3:forces:R:3 energy=-0.0968966028803944 pbc="F F F"
Kr       0.00000000       0.00000000       0.00000000       0.00000000       0.00000000      -0.00901601
Kr       0.00000000       0.00000000       4.41272727       0.00000000       0.00000000       0.00901601
2
Properties=species:S:1:pos:R:3:forces:R:3 energy=-0.09729039309940073 pbc="F F F"
Kr       0.00000000       0.00000000       0.00000000       0.00000000       0.00000000      -0.00453061
Kr       0.00000000       0.00000000       4.47151515       0.00000000       0.00000000       0.00453061
2
Properties=species:S:1:pos:R:3:forces:R:3 energy=-0.09744569041157194 pbc="F F F"
Kr       0.00000000       0.00000000       0.00000000       0.00000000       0.00000000      -0.00085168
Kr       0.00000000       0.00000000       4.53030303       0.00000000       0.00000000       0.00085168
2
Properties=species:S:1:pos:R:3:forces:R:3 energy=-0.09740401916752361 pbc="F F F"
Kr       0.00000000       0.00000000       0.00000000       0.00000000       0.00000000       0.00213460
Kr       0.00000000       0.00000000       4.58909091       0.00000000       0.00000000      -0.00213460
2
Properties=species:S:1:pos:R:3:forces:R:3 energy=-0.09720370928164106 pbc="F F F"
Kr       0.00000000       0.00000000       0.00000000       0.00000000       0.00000000       0.00452120
Kr       0.00000000       0.00000000       4.64787879       0.00000000       0.00000000      -0.00452120
2
Properties=species:S:1:pos:R:3:forces:R:3 energy=-0.09688185426586643 pbc="F F F"
Kr       0.00000000       0.00000000       0.00000000       0.00000000       0.00000000       0.00638265
Kr       0.00000000       0.00000000       4.70666667       0.00000000       0.00000000      -0.00638265
2
Properties=species:S:1:pos:R:3:forces:R:3 energy=-0.09646288693679037 pbc="F F F"
Kr       0.00000000       0.00000000       0.00000000       0.00000000       0.00000000       0.00777957
Kr       0.00000000       0.00000000       4.76545455       0.00000000       0.00000000      -0.00777957
2
Properties=species:S:1:pos:R:3:forces:R:3 energy=-0.09597580732587913 pbc="F F F"
Kr       0.00000000       0.00000000       0.00000000       0.00000000       0.00000000       0.00876242
Kr       0.00000000       0.00000000       4.82424242       0.00000000       0.00000000      -0.00876242
2
Properties=species:S:1:pos:R:3:forces:R:3 energy=-0.09543896111232233 pbc="F F F"
Kr       0.00000000       0.00000000       0.00000000       0.00000000       0.00000000       0.00937220
Kr       0.00000000       0.00000000       4.88303030       0.00000000       0.00000000      -0.00937220
2
Properties=species:S:1:pos:R:3:forces:R:3 energy=-0.0948800861865882 pbc="F F F"
Kr       0.00000000       0.00000000       0.00000000       0.00000000       0.00000000       0.00964113
Kr       0.00000000       0.00000000       4.94181818       0.00000000       0.00000000      -0.00964113
2
Properties=species:S:1:pos:R:3:forces:R:3 energy=-0.09431251514202338 pbc="F F F"
Kr       0.00000000       0.00000000       0.00000000       0.00000000       0.00000000       0.00959528
Kr       0.00000000       0.00000000       5.00060606       0.00000000       0.00000000      -0.00959528
2
Properties=species:S:1:pos:R:3:forces:R:3 energy=-0.09375620006334627 pbc="F F F"
Kr       0.00000000       0.00000000       0.00000000       0.00000000       0.00000000       0.00926114
Kr       0.00000000       0.00000000       5.05939394       0.00000000       0.00000000      -0.00926114
2
Properties=species:S:1:pos:R:3:forces:R:3 energy=-0.09322912549802165 pbc="F F F"
Kr       0.00000000       0.00000000       0.00000000       0.00000000       0.00000000       0.00867388
Kr       0.00000000       0.00000000       5.11818182       0.00000000       0.00000000      -0.00867388
2
Properties=species:S:1:pos:R:3:forces:R:3 energy=-0.09274162561216127 pbc="F F F"
Kr       0.00000000       0.00000000       0.00000000       0.00000000       0.00000000       0.00788451
Kr       0.00000000       0.00000000       5.17696970       0.00000000       0.00000000      -0.00788451
2
Properties=species:S:1:pos:R:3:forces:R:3 energy=-0.09230498191054906 pbc="F F F"
Kr       0.00000000       0.00000000       0.00000000       0.00000000       0.00000000       0.00696198
Kr       0.00000000       0.00000000       5.23575758       0.00000000       0.00000000      -0.00696198
2
Properties=species:S:1:pos:R:3:forces:R:3 energy=-0.09192476018771477 pbc="F F F"
Kr       0.00000000       0.00000000       0.00000000       0.00000000       0.00000000       0.00598871
Kr       0.00000000       0.00000000       5.29454545       0.00000000       0.00000000      -0.00598871
2
Properties=species:S:1:pos:R:3:forces:R:3 energy=-0.0915989194143897 pbc="F F F"
Kr       0.00000000       0.00000000       0.00000000       0.00000000       0.00000000       0.00504993
Kr       0.00000000       0.00000000       5.35333333       0.00000000       0.00000000      -0.00504993
2
Properties=species:S:1:pos:R:3:forces:R:3 energy=-0.09133020752373117 pbc="F F F"
Kr       0.00000000       0.00000000       0.00000000       0.00000000       0.00000000       0.00422049
Kr       0.00000000       0.00000000       5.41212121       0.00000000       0.00000000      -0.00422049
2
Properties=species:S:1:pos:R:3:forces:R:3 energy=-0.09110043121171235 pbc="F F F"
Kr       0.00000000       0.00000000       0.00000000       0.00000000       0.00000000       0.00355260
Kr       0.00000000       0.00000000       5.47090909       0.00000000       0.00000000      -0.00355260
2
Properties=species:S:1:pos:R:3:forces:R:3 energy=-0.0909076476515512 pbc="F F F"
Kr       0.00000000       0.00000000       0.00000000       0.00000000       0.00000000       0.00306846
Kr       0.00000000       0.00000000       5.52969697       0.00000000       0.00000000      -0.00306846
2
Properties=species:S:1:pos:R:3:forces:R:3 energy=-0.09073660197582382 pbc="F F F"
Kr       0.00000000       0.00000000       0.00000000       0.00000000       0.00000000       0.00275949
Kr       0.00000000       0.00000000       5.58848485       0.00000000       0.00000000      -0.00275949
2
Properties=species:S:1:pos:R:3:forces:R:3 energy=-0.09058162872531372 pbc="F F F"
Kr       0.00000000       0.00000000       0.00000000       0.00000000       0.00000000       0.00259136
Kr       0.00000000       0.00000000       5.64727273       0.00000000       0.00000000      -0.00259136
2
Properties=species:S:1:pos:R:3:forces:R:3 energy=-0.09043138019067161 pbc="F F F"
Kr       0.00000000       0.00000000       0.00000000       0.00000000       0.00000000       0.00251427
Kr       0.00000000       0.00000000       5.70606061       0.00000000       0.00000000      -0.00251427
2
Properties=species:S:1:pos:R:3:forces:R:3 energy=-0.09028313627889485 pbc="F F F"
Kr       0.00000000       0.00000000       0.00000000       0.00000000       0.00000000       0.00247523
Kr       0.00000000       0.00000000       5.76484848       0.00000000       0.00000000      -0.00247523
2
Properties=species:S:1:pos:R:3:forces:R:3 energy=-0.09013995497373348 pbc="F F F"
Kr       0.00000000       0.00000000       0.00000000       0.00000000       0.00000000       0.00242950
Kr       0.00000000       0.00000000       5.82363636       0.00000000       0.00000000      -0.00242950
2
Properties=species:S:1:pos:R:3:forces:R:3 energy=-0.08999920725707158 pbc="F F F"
Kr       0.00000000       0.00000000       0.00000000       0.00000000       0.00000000       0.00235038
Kr       0.00000000       0.00000000       5.88242424       0.00000000       0.00000000      -0.00235038
2
Properties=species:S:1:pos:R:3:forces:R:3 energy=-0.08986403426799061 pbc="F F F"
Kr       0.00000000       0.00000000       0.00000000       0.00000000       0.00000000       0.00223352
Kr       0.00000000       0.00000000       5.94121212       0.00000000       0.00000000      -0.00223352
2
Properties=species:S:1:pos:R:3:forces:R:3 energy=-0.08973666603886565 pbc="F F F"
Kr       0.00000000       0.00000000       0.00000000       0.00000000       0.00000000       0.00209550
Kr       0.00000000       0.00000000       6.00000000       0.00000000       0.00000000      -0.00209550
