2
Properties=species:S:1:pos:R:3:forces:R:3 energy=-3151.276290790462 pbc="F F F"
Li       0.00000000       0.00000000       0.00000000       0.00000000       0.00000000   28684.31250000
Li       0.00000000       0.00000000       0.18000000       0.00000000       0.00000000  -28684.31250000
2
Properties=species:S:1:pos:R:3:forces:R:3 energy=-1674.233322040462 pbc="F F F"
Li       0.00000000       0.00000000       0.00000000       0.00000000       0.00000000   20855.81054688
Li       0.00000000       0.00000000       0.23878788       0.00000000       0.00000000  -20855.81054688
2
Properties=species:S:1:pos:R:3:forces:R:3 energy=-723.6532439154621 pbc="F F F"
Li       0.00000000       0.00000000       0.00000000       0.00000000       0.00000000   11669.00097656
Li       0.00000000       0.00000000       0.29757576       0.00000000       0.00000000  -11669.00097656
2
Properties=species:S:1:pos:R:3:forces:R:3 energy=-251.3614043142688 pbc="F F F"
Li       0.00000000       0.00000000       0.00000000       0.00000000       0.00000000    4998.15087891
Li       0.00000000       0.00000000       0.35636364       0.00000000       0.00000000   -4998.15087891
2
Properties=species:S:1:pos:R:3:forces:R:3 energy=-69.3222731449663 pbc="F F F"
Li       0.00000000       0.00000000       0.00000000       0.00000000       0.00000000    1623.84277344
Li       0.00000000       0.00000000       0.41515152       0.00000000       0.00000000   -1623.84277344
2
Properties=species:S:1:pos:R:3:forces:R:3 energy=3.600644228981085 pbc="F F F"
Li       0.00000000       0.00000000       0.00000000       0.00000000       0.00000000    1064.69628906
Li       0.00000000       0.00000000       0.47393939       0.00000000       0.00000000   -1064.69628906
2
Properties=species:S:1:pos:R:3:forces:R:3 energy=41.11827863502095 pbc="F F F"
Li       0.00000000       0.00000000       0.00000000       0.00000000       0.00000000     185.11694336
Li       0.00000000       0.00000000       0.53272727       0.00000000       0.00000000    -185.11694336
2
Properties=species:S:1:pos:R:3:forces:R:3 energy=36.42395035225806 pbc="F F F"
Li       0.00000000       0.00000000       0.00000000       0.00000000       0.00000000    -217.40487671
Li       0.00000000       0.00000000       0.59151515       0.00000000       0.00000000     217.40487671
2
Properties=species:S:1:pos:R:3:forces:R:3 energy=23.206131182740382 pbc="F F F"
Li       0.00000000       0.00000000       0.00000000       0.00000000       0.00000000    -189.88395691
Li       0.00000000       0.00000000       0.65030303       0.00000000       0.00000000     189.88395691
2
Properties=species:S:1:pos:R:3:forces:R:3 energy=15.708818706656103 pbc="F F F"
Li       0.00000000       0.00000000       0.00000000       0.00000000       0.00000000     -88.23363495
Li       0.00000000       0.00000000       0.70909091       0.00000000       0.00000000      88.23363495
2
Properties=species:S:1:pos:R:3:forces:R:3 energy=11.501099008337789 pbc="F F F"
Li       0.00000000       0.00000000       0.00000000       0.00000000       0.00000000     -58.39267349
Li       0.00000000       0.00000000       0.76787879       0.00000000       0.00000000      58.39267349
2
Properties=species:S:1:pos:R:3:forces:R:3 energy=8.612155489796988 pbc="F F F"
Li       0.00000000       0.00000000       0.00000000       0.00000000       0.00000000     -39.96482086
Li       0.00000000       0.00000000       0.82666667       0.00000000       0.00000000      39.96482086
2
Properties=species:S:1:pos:R:3:forces:R:3 energy=6.49817351092198 pbc="F F F"
Li       0.00000000       0.00000000       0.00000000       0.00000000       0.00000000     -28.51309204
Li       0.00000000       0.00000000       0.88545455       0.00000000       0.00000000      28.51309204
2
Properties=species:S:1:pos:R:3:forces:R:3 energy=5.174646483664033 pbc="F F F"
Li       0.00000000       0.00000000       0.00000000       0.00000000       0.00000000     -17.65397453
Li       0.00000000       0.00000000       0.94424242       0.00000000       0.00000000      17.65397453
2
Properties=species:S:1:pos:R:3:forces:R:3 energy=4.339217719730668 pbc="F F F"
Li       0.00000000       0.00000000       0.00000000       0.00000000       0.00000000     -11.09719944
Li       0.00000000       0.00000000       1.00303030       0.00000000       0.00000000      11.09719944
2
Properties=species:S:1:pos:R:3:forces:R:3 energy=3.850573694775837 pbc="F F F"
Li       0.00000000       0.00000000       0.00000000       0.00000000       0.00000000      -6.13263845
Li       0.00000000       0.00000000       1.06181818       0.00000000       0.00000000       6.13263845
2
Properties=species:S:1:pos:R:3:forces:R:3 energy=3.463716471770779 pbc="F F F"
Li       0.00000000       0.00000000       0.00000000       0.00000000       0.00000000      -7.48083782
Li       0.00000000       0.00000000       1.12060606       0.00000000       0.00000000       7.48083782
2
Properties=species:S:1:pos:R:3:forces:R:3 energy=2.9999895201688624 pbc="F F F"
Li       0.00000000       0.00000000       0.00000000       0.00000000       0.00000000      -7.80161333
Li       0.00000000       0.00000000       1.17939394       0.00000000       0.00000000       7.80161333
2
Properties=species:S:1:pos:R:3:forces:R:3 energy=2.570670478836026 pbc="F F F"
Li       0.00000000       0.00000000       0.00000000       0.00000000       0.00000000      -6.66585255
Li       0.00000000       0.00000000       1.23818182       0.00000000       0.00000000       6.66585255
2
Properties=species:S:1:pos:R:3:forces:R:3 energy=2.2149849894368194 pbc="F F F"
Li       0.00000000       0.00000000       0.00000000       0.00000000       0.00000000      -5.43022203
Li       0.00000000       0.00000000       1.29696970       0.00000000       0.00000000       5.43022203
2
Properties=species:S:1:pos:R:3:forces:R:3 energy=1.906031887633519 pbc="F F F"
Li       0.00000000       0.00000000       0.00000000       0.00000000       0.00000000      -5.17280960
Li       0.00000000       0.00000000       1.35575758       0.00000000       0.00000000       5.17280960
2
Properties=species:S:1:pos:R:3:forces:R:3 energy=1.600648917822826 pbc="F F F"
Li       0.00000000       0.00000000       0.00000000       0.00000000       0.00000000      -5.15541792
Li       0.00000000       0.00000000       1.41454545       0.00000000       0.00000000       5.15541792
2
Properties=species:S:1:pos:R:3:forces:R:3 energy=1.2984966764862305 pbc="F F F"
Li       0.00000000       0.00000000       0.00000000       0.00000000       0.00000000      -5.09414625
Li       0.00000000       0.00000000       1.47333333       0.00000000       0.00000000       5.09414625
2
Properties=species:S:1:pos:R:3:forces:R:3 energy=1.0052639481305155 pbc="F F F"
Li       0.00000000       0.00000000       0.00000000       0.00000000       0.00000000      -4.87447834
Li       0.00000000       0.00000000       1.53212121       0.00000000       0.00000000       4.87447834
2
Properties=species:S:1:pos:R:3:forces:R:3 energy=0.7266214243769398 pbc="F F F"
Li       0.00000000       0.00000000       0.00000000       0.00000000       0.00000000      -4.63913727
Li       0.00000000       0.00000000       1.59090909       0.00000000       0.00000000       4.63913727
2
Properties=species:S:1:pos:R:3:forces:R:3 energy=0.45668890144600605 pbc="F F F"
Li       0.00000000       0.00000000       0.00000000       0.00000000       0.00000000      -4.49284077
Li       0.00000000       0.00000000       1.64969697       0.00000000       0.00000000       4.49284077
2
Properties=species:S:1:pos:R:3:forces:R:3 energy=0.2015252465000611 pbc="F F F"
Li       0.00000000       0.00000000       0.00000000       0.00000000       0.00000000      -4.18493986
Li       0.00000000       0.00000000       1.70848485       0.00000000       0.00000000       4.18493986
2
Properties=species:S:1:pos:R:3:forces:R:3 energy=-0.03614231551598032 pbc="F F F"
Li       0.00000000       0.00000000       0.00000000       0.00000000       0.00000000      -3.95468235
Li       0.00000000       0.00000000       1.76727273       0.00000000       0.00000000       3.95468235
2
Properties=species:S:1:pos:R:3:forces:R:3 energy=-0.27175116426748297 pbc="F F F"
Li       0.00000000       0.00000000       0.00000000       0.00000000       0.00000000      -4.05763721
Li       0.00000000       0.00000000       1.82606061       0.00000000       0.00000000       4.05763721
2
Properties=species:S:1:pos:R:3:forces:R:3 energy=-0.5040655960978143 pbc="F F F"
Li       0.00000000       0.00000000       0.00000000       0.00000000       0.00000000      -3.81542730
Li       0.00000000       0.00000000       1.88484848       0.00000000       0.00000000       3.81542730
2
Properties=species:S:1:pos:R:3:forces:R:3 energy=-0.7202041007642584 pbc="F F F"
Li       0.00000000       0.00000000       0.00000000       0.00000000       0.00000000      -3.51603746
Li       0.00000000       0.00000000       1.94363636       0.00000000       0.00000000       3.51603746
2
Properties=species:S:1:pos:R:3:forces:R:3 energy=-0.9163350857922135 pbc="F F F"
Li       0.00000000       0.00000000       0.00000000       0.00000000       0.00000000      -3.13805842
Li       0.00000000       0.00000000       2.00242424       0.00000000       0.00000000       3.13805842
2
Properties=species:S:1:pos:R:3:forces:R:3 energy=-1.0854512485760222 pbc="F F F"
Li       0.00000000       0.00000000       0.00000000       0.00000000       0.00000000      -2.60435224
Li       0.00000000       0.00000000       2.06121212       0.00000000       0.00000000       2.60435224
2
Properties=species:S:1:pos:R:3:forces:R:3 energy=-1.2247859244869024 pbc="F F F"
Li       0.00000000       0.00000000       0.00000000       0.00000000       0.00000000      -2.15474653
Li       0.00000000       0.00000000       2.12000000       0.00000000       0.00000000       2.15474653
2
Properties=species:S:1:pos:R:3:forces:R:3 energy=-1.3407760476133022 pbc="F F F"
Li       0.00000000       0.00000000       0.00000000       0.00000000       0.00000000      -1.81035352
Li       0.00000000       0.00000000       2.17878788       0.00000000       0.00000000       1.81035352
2
Properties=species:S:1:pos:R:3:forces:R:3 energy=-1.4381040922445862 pbc="F F F"
Li       0.00000000       0.00000000       0.00000000       0.00000000       0.00000000      -1.49990296
Li       0.00000000       0.00000000       2.23757576       0.00000000       0.00000000       1.49990296
2
Properties=species:S:1:pos:R:3:forces:R:3 energy=-1.5189605863531577 pbc="F F F"
Li       0.00000000       0.00000000       0.00000000       0.00000000       0.00000000      -1.26974189
Li       0.00000000       0.00000000       2.29636364       0.00000000       0.00000000       1.26974189
2
Properties=species:S:1:pos:R:3:forces:R:3 energy=-1.5883072135674967 pbc="F F F"
Li       0.00000000       0.00000000       0.00000000       0.00000000       0.00000000      -1.09226370
Li       0.00000000       0.00000000       2.35515152       0.00000000       0.00000000       1.09226370
2
Properties=species:S:1:pos:R:3:forces:R:3 energy=-1.6480287982367443 pbc="F F F"
Li       0.00000000       0.00000000       0.00000000       0.00000000       0.00000000      -0.94626617
Li       0.00000000       0.00000000       2.41393939       0.00000000       0.00000000       0.94626617
2
Properties=species:S:1:pos:R:3:forces:R:3 energy=-1.7005430909351722 pbc="F F F"
Li       0.00000000       0.00000000       0.00000000       0.00000000       0.00000000      -0.84961289
Li       0.00000000       0.00000000       2.47272727       0.00000000       0.00000000       0.84961289
2
Properties=species:S:1:pos:R:3:forces:R:3 energy=-1.748185193705849 pbc="F F F"
Li       0.00000000       0.00000000       0.00000000       0.00000000       0.00000000      -0.76433206
Li       0.00000000       0.00000000       2.53151515       0.00000000       0.00000000       0.76433206
2
Properties=species:S:1:pos:R:3:forces:R:3 energy=-1.7895194809957566 pbc="F F F"
Li       0.00000000       0.00000000       0.00000000       0.00000000       0.00000000      -0.63920659
Li       0.00000000       0.00000000       2.59030303       0.00000000       0.00000000       0.63920659
2
Properties=species:S:1:pos:R:3:forces:R:3 energy=-1.823687127872108 pbc="F F F"
Li       0.00000000       0.00000000       0.00000000       0.00000000       0.00000000      -0.52927524
Li       0.00000000       0.00000000       2.64909091       0.00000000       0.00000000       0.52927524
2
Properties=species:S:1:pos:R:3:forces:R:3 energy=-1.8523665228369732 pbc="F F F"
Li       0.00000000       0.00000000       0.00000000       0.00000000       0.00000000      -0.44940996
Li       0.00000000       0.00000000       2.70787879       0.00000000       0.00000000       0.44940996
2
Properties=species:S:1:pos:R:3:forces:R:3 energy=-1.8766887108707955 pbc="F F F"
Li       0.00000000       0.00000000       0.00000000       0.00000000       0.00000000      -0.37927979
Li       0.00000000       0.00000000       2.76666667       0.00000000       0.00000000       0.37927979
2
Properties=species:S:1:pos:R:3:forces:R:3 energy=-1.897247596333543 pbc="F F F"
Li       0.00000000       0.00000000       0.00000000       0.00000000       0.00000000      -0.32372916
Li       0.00000000       0.00000000       2.82545455       0.00000000       0.00000000       0.32372916
2
Properties=species:S:1:pos:R:3:forces:R:3 energy=-1.9152095966520355 pbc="F F F"
Li       0.00000000       0.00000000       0.00000000       0.00000000       0.00000000      -0.29107842
Li       0.00000000       0.00000000       2.88424242       0.00000000       0.00000000       0.29107842
2
Properties=species:S:1:pos:R:3:forces:R:3 energy=-1.9318606509061842 pbc="F F F"
Li       0.00000000       0.00000000       0.00000000       0.00000000       0.00000000      -0.27837291
Li       0.00000000       0.00000000       2.94303030       0.00000000       0.00000000       0.27837291
2
Properties=species:S:1:pos:R:3:forces:R:3 energy=-1.9483022291608711 pbc="F F F"
Li       0.00000000       0.00000000       0.00000000       0.00000000       0.00000000      -0.28459340
Li       0.00000000       0.00000000       3.00181818       0.00000000       0.00000000       0.28459340
2
Properties=species:S:1:pos:R:3:forces:R:3 energy=-1.9658652514285808 pbc="F F F"
Li       0.00000000       0.00000000       0.00000000       0.00000000       0.00000000      -0.31868464
Li       0.00000000       0.00000000       3.06060606       0.00000000       0.00000000       0.31868464
2
Properties=species:S:1:pos:R:3:forces:R:3 energy=-1.986499667064424 pbc="F F F"
Li       0.00000000       0.00000000       0.00000000       0.00000000       0.00000000      -0.38855726
Li       0.00000000       0.00000000       3.11939394       0.00000000       0.00000000       0.38855726
2
Properties=species:S:1:pos:R:3:forces:R:3 energy=-2.011725716584516 pbc="F F F"
Li       0.00000000       0.00000000       0.00000000       0.00000000       0.00000000      -0.46553349
Li       0.00000000       0.00000000       3.17818182       0.00000000       0.00000000       0.46553349
2
Properties=species:S:1:pos:R:3:forces:R:3 energy=-2.040008721784485 pbc="F F F"
Li       0.00000000       0.00000000       0.00000000       0.00000000       0.00000000      -0.48153207
Li       0.00000000       0.00000000       3.23696970       0.00000000       0.00000000       0.48153207
2
Properties=species:S:1:pos:R:3:forces:R:3 energy=-2.0665301388470962 pbc="F F F"
Li       0.00000000       0.00000000       0.00000000       0.00000000       0.00000000      -0.40801665
Li       0.00000000       0.00000000       3.29575758       0.00000000       0.00000000       0.40801665
2
Properties=species:S:1:pos:R:3:forces:R:3 energy=-2.087075958832376 pbc="F F F"
Li       0.00000000       0.00000000       0.00000000       0.00000000       0.00000000      -0.28830421
Li       0.00000000       0.00000000       3.35454545       0.00000000       0.00000000       0.28830421
2
Properties=species:S:1:pos:R:3:forces:R:3 energy=-2.1005392619264303 pbc="F F F"
Li       0.00000000       0.00000000       0.00000000       0.00000000       0.00000000      -0.17305030
Li       0.00000000       0.00000000       3.41333333       0.00000000       0.00000000       0.17305030
2
Properties=species:S:1:pos:R:3:forces:R:3 energy=-2.107912874883611 pbc="F F F"
Li       0.00000000       0.00000000       0.00000000       0.00000000       0.00000000      -0.08207954
Li       0.00000000       0.00000000       3.47212121       0.00000000       0.00000000       0.08207954
2
Properties=species:S:1:pos:R:3:forces:R:3 energy=-2.1106526140821216 pbc="F F F"
Li       0.00000000       0.00000000       0.00000000       0.00000000       0.00000000      -0.01455865
Li       0.00000000       0.00000000       3.53090909       0.00000000       0.00000000       0.01455865
2
Properties=species:S:1:pos:R:3:forces:R:3 energy=-2.109960677240051 pbc="F F F"
Li       0.00000000       0.00000000       0.00000000       0.00000000       0.00000000       0.03570658
Li       0.00000000       0.00000000       3.58969697       0.00000000       0.00000000      -0.03570658
2
Properties=species:S:1:pos:R:3:forces:R:3 energy=-2.1066888366887344 pbc="F F F"
Li       0.00000000       0.00000000       0.00000000       0.00000000       0.00000000       0.07391139
Li       0.00000000       0.00000000       3.64848485       0.00000000       0.00000000      -0.07391139
2
Properties=species:S:1:pos:R:3:forces:R:3 energy=-2.1014435516133547 pbc="F F F"
Li       0.00000000       0.00000000       0.00000000       0.00000000       0.00000000       0.10330634
Li       0.00000000       0.00000000       3.70727273       0.00000000       0.00000000      -0.10330634
2
Properties=species:S:1:pos:R:3:forces:R:3 energy=-2.094676968001739 pbc="F F F"
Li       0.00000000       0.00000000       0.00000000       0.00000000       0.00000000       0.12581028
Li       0.00000000       0.00000000       3.76606061       0.00000000       0.00000000      -0.12581028
2
Properties=species:S:1:pos:R:3:forces:R:3 energy=-2.086761041010812 pbc="F F F"
Li       0.00000000       0.00000000       0.00000000       0.00000000       0.00000000       0.14264330
Li       0.00000000       0.00000000       3.82484848       0.00000000       0.00000000      -0.14264330
2
Properties=species:S:1:pos:R:3:forces:R:3 energy=-2.0779997776762613 pbc="F F F"
Li       0.00000000       0.00000000       0.00000000       0.00000000       0.00000000       0.15466817
Li       0.00000000       0.00000000       3.88363636       0.00000000       0.00000000      -0.15466817
2
Properties=species:S:1:pos:R:3:forces:R:3 energy=-2.068657737968251 pbc="F F F"
Li       0.00000000       0.00000000       0.00000000       0.00000000       0.00000000       0.16253887
Li       0.00000000       0.00000000       3.94242424       0.00000000       0.00000000      -0.16253887
2
Properties=species:S:1:pos:R:3:forces:R:3 energy=-2.05896053908537 pbc="F F F"
Li       0.00000000       0.00000000       0.00000000       0.00000000       0.00000000       0.16680771
Li       0.00000000       0.00000000       4.00121212       0.00000000       0.00000000      -0.16680771
2
Properties=species:S:1:pos:R:3:forces:R:3 energy=-2.0491048737720963 pbc="F F F"
Li       0.00000000       0.00000000       0.00000000       0.00000000       0.00000000       0.16804741
Li       0.00000000       0.00000000       4.06000000       0.00000000       0.00000000      -0.16804741
2
Properties=species:S:1:pos:R:3:forces:R:3 energy=-2.0392477084956497 pbc="F F F"
Li       0.00000000       0.00000000       0.00000000       0.00000000       0.00000000       0.16692612
Li       0.00000000       0.00000000       4.11878788       0.00000000       0.00000000      -0.16692612
2
Properties=species:S:1:pos:R:3:forces:R:3 energy=-2.029509577981025 pbc="F F F"
Li       0.00000000       0.00000000       0.00000000       0.00000000       0.00000000       0.16415775
Li       0.00000000       0.00000000       4.17757576       0.00000000       0.00000000      -0.16415775
2
Properties=species:S:1:pos:R:3:forces:R:3 energy=-2.0199667844343634 pbc="F F F"
Li       0.00000000       0.00000000       0.00000000       0.00000000       0.00000000       0.16037889
Li       0.00000000       0.00000000       4.23636364       0.00000000       0.00000000      -0.16037889
2
Properties=species:S:1:pos:R:3:forces:R:3 energy=-2.0106637729744636 pbc="F F F"
Li       0.00000000       0.00000000       0.00000000       0.00000000       0.00000000       0.15605642
Li       0.00000000       0.00000000       4.29515152       0.00000000       0.00000000      -0.15605642
2
Properties=species:S:1:pos:R:3:forces:R:3 energy=-2.001623587044366 pbc="F F F"
Li       0.00000000       0.00000000       0.00000000       0.00000000       0.00000000       0.15148193
Li       0.00000000       0.00000000       4.35393939       0.00000000       0.00000000      -0.15148193
2
Properties=species:S:1:pos:R:3:forces:R:3 energy=-1.992854982954862 pbc="F F F"
Li       0.00000000       0.00000000       0.00000000       0.00000000       0.00000000       0.14681986
Li       0.00000000       0.00000000       4.41272727       0.00000000       0.00000000      -0.14681986
2
Properties=species:S:1:pos:R:3:forces:R:3 energy=-1.9843602240057763 pbc="F F F"
Li       0.00000000       0.00000000       0.00000000       0.00000000       0.00000000       0.14215945
Li       0.00000000       0.00000000       4.47151515       0.00000000       0.00000000      -0.14215945
2
Properties=species:S:1:pos:R:3:forces:R:3 energy=-1.9761393070001112 pbc="F F F"
Li       0.00000000       0.00000000       0.00000000       0.00000000       0.00000000       0.13754103
Li       0.00000000       0.00000000       4.53030303       0.00000000       0.00000000      -0.13754103
2
Properties=species:S:1:pos:R:3:forces:R:3 energy=-1.9681882846424454 pbc="F F F"
Li       0.00000000       0.00000000       0.00000000       0.00000000       0.00000000       0.13296564
Li       0.00000000       0.00000000       4.58909091       0.00000000       0.00000000      -0.13296564
2
Properties=species:S:1:pos:R:3:forces:R:3 energy=-1.960505164982872 pbc="F F F"
Li       0.00000000       0.00000000       0.00000000       0.00000000       0.00000000       0.12841129
Li       0.00000000       0.00000000       4.64787879       0.00000000       0.00000000      -0.12841129
2
Properties=species:S:1:pos:R:3:forces:R:3 energy=-1.9530901775140588 pbc="F F F"
Li       0.00000000       0.00000000       0.00000000       0.00000000       0.00000000       0.12385339
Li       0.00000000       0.00000000       4.70666667       0.00000000       0.00000000      -0.12385339
2
Properties=species:S:1:pos:R:3:forces:R:3 energy=-1.9459434143280359 pbc="F F F"
Li       0.00000000       0.00000000       0.00000000       0.00000000       0.00000000       0.11929426
Li       0.00000000       0.00000000       4.76545455       0.00000000       0.00000000      -0.11929426
2
Properties=species:S:1:pos:R:3:forces:R:3 energy=-1.9390631635220437 pbc="F F F"
Li       0.00000000       0.00000000       0.00000000       0.00000000       0.00000000       0.11477447
Li       0.00000000       0.00000000       4.82424242       0.00000000       0.00000000      -0.11477447
2
Properties=species:S:1:pos:R:3:forces:R:3 energy=-1.9324461119391532 pbc="F F F"
Li       0.00000000       0.00000000       0.00000000       0.00000000       0.00000000       0.11036892
Li       0.00000000       0.00000000       4.88303030       0.00000000       0.00000000      -0.11036892
2
Properties=species:S:1:pos:R:3:forces:R:3 energy=-1.926082741523433 pbc="F F F"
Li       0.00000000       0.00000000       0.00000000       0.00000000       0.00000000       0.10615191
Li       0.00000000       0.00000000       4.94181818       0.00000000       0.00000000      -0.10615191
2
Properties=species:S:1:pos:R:3:forces:R:3 energy=-1.919960914270186 pbc="F F F"
Li       0.00000000       0.00000000       0.00000000       0.00000000       0.00000000       0.10215896
Li       0.00000000       0.00000000       5.00060606       0.00000000       0.00000000      -0.10215896
2
Properties=species:S:1:pos:R:3:forces:R:3 energy=-1.9140681533775952 pbc="F F F"
Li       0.00000000       0.00000000       0.00000000       0.00000000       0.00000000       0.09834599
Li       0.00000000       0.00000000       5.05939394       0.00000000       0.00000000      -0.09834599
2
Properties=species:S:1:pos:R:3:forces:R:3 energy=-1.9083963862757283 pbc="F F F"
Li       0.00000000       0.00000000       0.00000000       0.00000000       0.00000000       0.09457873
Li       0.00000000       0.00000000       5.11818182       0.00000000       0.00000000      -0.09457873
2
Properties=species:S:1:pos:R:3:forces:R:3 energy=-1.9029513593286245 pbc="F F F"
Li       0.00000000       0.00000000       0.00000000       0.00000000       0.00000000       0.09064467
Li       0.00000000       0.00000000       5.17696970       0.00000000       0.00000000      -0.09064467
2
Properties=species:S:1:pos:R:3:forces:R:3 energy=-1.897748530033555 pbc="F F F"
Li       0.00000000       0.00000000       0.00000000       0.00000000       0.00000000       0.08629818
Li       0.00000000       0.00000000       5.23575758       0.00000000       0.00000000      -0.08629818
2
Properties=species:S:1:pos:R:3:forces:R:3 energy=-1.8928174789326884 pbc="F F F"
Li       0.00000000       0.00000000       0.00000000       0.00000000       0.00000000       0.08131871
Li       0.00000000       0.00000000       5.29454545       0.00000000       0.00000000      -0.08131871
2
Properties=species:S:1:pos:R:3:forces:R:3 energy=-1.8882012188680128 pbc="F F F"
Li       0.00000000       0.00000000       0.00000000       0.00000000       0.00000000       0.07557552
Li       0.00000000       0.00000000       5.35333333       0.00000000       0.00000000      -0.07557552
2
Properties=species:S:1:pos:R:3:forces:R:3 energy=-1.8839470907258198 pbc="F F F"
Li       0.00000000       0.00000000       0.00000000       0.00000000       0.00000000       0.06906635
Li       0.00000000       0.00000000       5.41212121       0.00000000       0.00000000      -0.06906635
2
Properties=species:S:1:pos:R:3:forces:R:3 energy=-1.8800922697566156 pbc="F F F"
Li       0.00000000       0.00000000       0.00000000       0.00000000       0.00000000       0.06194322
Li       0.00000000       0.00000000       5.47090909       0.00000000       0.00000000      -0.06194322
2
Properties=species:S:1:pos:R:3:forces:R:3 energy=-1.8766695192992409 pbc="F F F"
Li       0.00000000       0.00000000       0.00000000       0.00000000       0.00000000       0.05448374
Li       0.00000000       0.00000000       5.52969697       0.00000000       0.00000000      -0.05448374
2
Properties=species:S:1:pos:R:3:forces:R:3 energy=-1.8736867184612895 pbc="F F F"
Li       0.00000000       0.00000000       0.00000000       0.00000000       0.00000000       0.04706048
Li       0.00000000       0.00000000       5.58848485       0.00000000       0.00000000      -0.04706048
2
Properties=species:S:1:pos:R:3:forces:R:3 energy=-1.8711280280375095 pbc="F F F"
Li       0.00000000       0.00000000       0.00000000       0.00000000       0.00000000       0.04007555
Li       0.00000000       0.00000000       5.64727273       0.00000000       0.00000000      -0.04007555
2
Properties=species:S:1:pos:R:3:forces:R:3 energy=-1.8689580806739172 pbc="F F F"
Li       0.00000000       0.00000000       0.00000000       0.00000000       0.00000000       0.03389531
Li       0.00000000       0.00000000       5.70606061       0.00000000       0.00000000      -0.03389531
2
Properties=species:S:1:pos:R:3:forces:R:3 energy=-1.8671216212400585 pbc="F F F"
Li       0.00000000       0.00000000       0.00000000       0.00000000       0.00000000       0.02877944
Li       0.00000000       0.00000000       5.76484848       0.00000000       0.00000000      -0.02877944
2
Properties=species:S:1:pos:R:3:forces:R:3 energy=-1.8655516922562534 pbc="F F F"
Li       0.00000000       0.00000000       0.00000000       0.00000000       0.00000000       0.02485538
Li       0.00000000       0.00000000       5.82363636       0.00000000       0.00000000      -0.02485538
2
Properties=species:S:1:pos:R:3:forces:R:3 energy=-1.8641776561779968 pbc="F F F"
Li       0.00000000       0.00000000       0.00000000       0.00000000       0.00000000       0.02206779
Li       0.00000000       0.00000000       5.88242424       0.00000000       0.00000000      -0.02206779
2
Properties=species:S:1:pos:R:3:forces:R:3 energy=-1.8629386624618973 pbc="F F F"
Li       0.00000000       0.00000000       0.00000000       0.00000000       0.00000000       0.02019528
Li       0.00000000       0.00000000       5.94121212       0.00000000       0.00000000      -0.02019528
2
Properties=species:S:1:pos:R:3:forces:R:3 energy=-1.8617917157835018 pbc="F F F"
Li       0.00000000       0.00000000       0.00000000       0.00000000       0.00000000       0.01887134
Li       0.00000000       0.00000000       6.00000000       0.00000000       0.00000000      -0.01887134
