2
Properties=species:S:1:pos:R:3:forces:R:3 energy=79704.72547345019 pbc="F F F"
Mg       0.00000000       0.00000000       0.00000000       0.00000000       0.00000000 -790046.68750000
Mg       0.00000000       0.00000000       0.18000000       0.00000000       0.00000000  790046.68750000
2
Properties=species:S:1:pos:R:3:forces:R:3 energy=40007.5067234502 pbc="F F F"
Mg       0.00000000       0.00000000       0.00000000       0.00000000       0.00000000 -544181.18750000
Mg       0.00000000       0.00000000       0.23878788       0.00000000       0.00000000  544181.18750000
2
Properties=species:S:1:pos:R:3:forces:R:3 energy=15987.744028137697 pbc="F F F"
Mg       0.00000000       0.00000000       0.00000000       0.00000000       0.00000000 -282066.28125000
Mg       0.00000000       0.00000000       0.29757576       0.00000000       0.00000000  282066.28125000
2
Properties=species:S:1:pos:R:3:forces:R:3 energy=5026.735239081532 pbc="F F F"
Mg       0.00000000       0.00000000       0.00000000       0.00000000       0.00000000 -109411.75781250
Mg       0.00000000       0.00000000       0.35636364       0.00000000       0.00000000  109411.75781250
2
Properties=species:S:1:pos:R:3:forces:R:3 energy=1216.9118748363908 pbc="F F F"
Mg       0.00000000       0.00000000       0.00000000       0.00000000       0.00000000  -31626.37695312
Mg       0.00000000       0.00000000       0.41515152       0.00000000       0.00000000   31626.37695312
2
Properties=species:S:1:pos:R:3:forces:R:3 energy=267.4670506366476 pbc="F F F"
Mg       0.00000000       0.00000000       0.00000000       0.00000000       0.00000000   -6511.98681641
Mg       0.00000000       0.00000000       0.47393939       0.00000000       0.00000000    6511.98681641
2
Properties=species:S:1:pos:R:3:forces:R:3 energy=116.8237172522742 pbc="F F F"
Mg       0.00000000       0.00000000       0.00000000       0.00000000       0.00000000    -673.01135254
Mg       0.00000000       0.00000000       0.53272727       0.00000000       0.00000000     673.01135254
2
Properties=species:S:1:pos:R:3:forces:R:3 energy=86.6608450138488 pbc="F F F"
Mg       0.00000000       0.00000000       0.00000000       0.00000000       0.00000000    -274.85733032
Mg       0.00000000       0.00000000       0.59151515       0.00000000       0.00000000     274.85733032
2
Properties=species:S:1:pos:R:3:forces:R:3 energy=69.32860027385045 pbc="F F F"
Mg       0.00000000       0.00000000       0.00000000       0.00000000       0.00000000    -338.38623047
Mg       0.00000000       0.00000000       0.65030303       0.00000000       0.00000000     338.38623047
2
Properties=species:S:1:pos:R:3:forces:R:3 energy=51.99857957838571 pbc="F F F"
Mg       0.00000000       0.00000000       0.00000000       0.00000000       0.00000000    -273.11056519
Mg       0.00000000       0.00000000       0.70909091       0.00000000       0.00000000     273.11056519
2
Properties=species:S:1:pos:R:3:forces:R:3 energy=38.944647705226515 pbc="F F F"
Mg       0.00000000       0.00000000       0.00000000       0.00000000       0.00000000    -157.06335449
Mg       0.00000000       0.00000000       0.76787879       0.00000000       0.00000000     157.06335449
2
Properties=species:S:1:pos:R:3:forces:R:3 energy=32.575080290299155 pbc="F F F"
Mg       0.00000000       0.00000000       0.00000000       0.00000000       0.00000000     -77.03725433
Mg       0.00000000       0.00000000       0.82666667       0.00000000       0.00000000      77.03725433
2
Properties=species:S:1:pos:R:3:forces:R:3 energy=29.23926743320294 pbc="F F F"
Mg       0.00000000       0.00000000       0.00000000       0.00000000       0.00000000     -33.14686203
Mg       0.00000000       0.00000000       0.88545455       0.00000000       0.00000000      33.14686203
2
Properties=species:S:1:pos:R:3:forces:R:3 energy=28.13328080937888 pbc="F F F"
Mg       0.00000000       0.00000000       0.00000000       0.00000000       0.00000000      -8.52911758
Mg       0.00000000       0.00000000       0.94424242       0.00000000       0.00000000       8.52911758
2
Properties=species:S:1:pos:R:3:forces:R:3 energy=27.83189048761653 pbc="F F F"
Mg       0.00000000       0.00000000       0.00000000       0.00000000       0.00000000      -1.54899228
Mg       0.00000000       0.00000000       1.00303030       0.00000000       0.00000000       1.54899228
2
Properties=species:S:1:pos:R:3:forces:R:3 energy=27.93211194380992 pbc="F F F"
Mg       0.00000000       0.00000000       0.00000000       0.00000000       0.00000000       1.09245980
Mg       0.00000000       0.00000000       1.06181818       0.00000000       0.00000000      -1.09245980
2
Properties=species:S:1:pos:R:3:forces:R:3 energy=27.686462985860324 pbc="F F F"
Mg       0.00000000       0.00000000       0.00000000       0.00000000       0.00000000     -13.28114128
Mg       0.00000000       0.00000000       1.12060606       0.00000000       0.00000000      13.28114128
2
Properties=species:S:1:pos:R:3:forces:R:3 energy=26.42029929560836 pbc="F F F"
Mg       0.00000000       0.00000000       0.00000000       0.00000000       0.00000000     -30.62043762
Mg       0.00000000       0.00000000       1.17939394       0.00000000       0.00000000      30.62043762
2
Properties=species:S:1:pos:R:3:forces:R:3 energy=24.546651668506065 pbc="F F F"
Mg       0.00000000       0.00000000       0.00000000       0.00000000       0.00000000     -33.96748734
Mg       0.00000000       0.00000000       1.23818182       0.00000000       0.00000000      33.96748734
2
Properties=species:S:1:pos:R:3:forces:R:3 energy=22.316205039117598 pbc="F F F"
Mg       0.00000000       0.00000000       0.00000000       0.00000000       0.00000000     -42.21890640
Mg       0.00000000       0.00000000       1.29696970       0.00000000       0.00000000      42.21890640
2
Properties=species:S:1:pos:R:3:forces:R:3 energy=19.827125160282407 pbc="F F F"
Mg       0.00000000       0.00000000       0.00000000       0.00000000       0.00000000     -43.29029083
Mg       0.00000000       0.00000000       1.35575758       0.00000000       0.00000000      43.29029083
2
Properties=species:S:1:pos:R:3:forces:R:3 energy=17.11297781933778 pbc="F F F"
Mg       0.00000000       0.00000000       0.00000000       0.00000000       0.00000000     -48.24235153
Mg       0.00000000       0.00000000       1.41454545       0.00000000       0.00000000      48.24235153
2
Properties=species:S:1:pos:R:3:forces:R:3 energy=14.28192717301974 pbc="F F F"
Mg       0.00000000       0.00000000       0.00000000       0.00000000       0.00000000     -47.67977142
Mg       0.00000000       0.00000000       1.47333333       0.00000000       0.00000000      47.67977142
2
Properties=species:S:1:pos:R:3:forces:R:3 energy=11.554842640455426 pbc="F F F"
Mg       0.00000000       0.00000000       0.00000000       0.00000000       0.00000000     -44.22938919
Mg       0.00000000       0.00000000       1.53212121       0.00000000       0.00000000      44.22938919
2
Properties=species:S:1:pos:R:3:forces:R:3 energy=9.155021758937986 pbc="F F F"
Mg       0.00000000       0.00000000       0.00000000       0.00000000       0.00000000     -37.40460968
Mg       0.00000000       0.00000000       1.59090909       0.00000000       0.00000000      37.40460968
2
Properties=species:S:1:pos:R:3:forces:R:3 energy=7.150802914632976 pbc="F F F"
Mg       0.00000000       0.00000000       0.00000000       0.00000000       0.00000000     -30.60037041
Mg       0.00000000       0.00000000       1.64969697       0.00000000       0.00000000      30.60037041
2
Properties=species:S:1:pos:R:3:forces:R:3 energy=5.5296601465954565 pbc="F F F"
Mg       0.00000000       0.00000000       0.00000000       0.00000000       0.00000000     -24.78060341
Mg       0.00000000       0.00000000       1.70848485       0.00000000       0.00000000      24.78060341
2
Properties=species:S:1:pos:R:3:forces:R:3 energy=4.250805864029165 pbc="F F F"
Mg       0.00000000       0.00000000       0.00000000       0.00000000       0.00000000     -18.81264496
Mg       0.00000000       0.00000000       1.76727273       0.00000000       0.00000000      18.81264496
2
Properties=species:S:1:pos:R:3:forces:R:3 energy=3.287103007507317 pbc="F F F"
Mg       0.00000000       0.00000000       0.00000000       0.00000000       0.00000000     -14.07935238
Mg       0.00000000       0.00000000       1.82606061       0.00000000       0.00000000      14.07935238
2
Properties=species:S:1:pos:R:3:forces:R:3 energy=2.5675846377092806 pbc="F F F"
Mg       0.00000000       0.00000000       0.00000000       0.00000000       0.00000000     -10.60450649
Mg       0.00000000       0.00000000       1.88484848       0.00000000       0.00000000      10.60450649
2
Properties=species:S:1:pos:R:3:forces:R:3 energy=2.0210483591285784 pbc="F F F"
Mg       0.00000000       0.00000000       0.00000000       0.00000000       0.00000000      -8.13426113
Mg       0.00000000       0.00000000       1.94363636       0.00000000       0.00000000       8.13426113
2
Properties=species:S:1:pos:R:3:forces:R:3 energy=1.5945041516999439 pbc="F F F"
Mg       0.00000000       0.00000000       0.00000000       0.00000000       0.00000000      -6.49416351
Mg       0.00000000       0.00000000       2.00242424       0.00000000       0.00000000       6.49416351
2
Properties=species:S:1:pos:R:3:forces:R:3 energy=1.2483716796131843 pbc="F F F"
Mg       0.00000000       0.00000000       0.00000000       0.00000000       0.00000000      -5.33853340
Mg       0.00000000       0.00000000       2.06121212       0.00000000       0.00000000       5.33853340
2
Properties=species:S:1:pos:R:3:forces:R:3 energy=0.9616815550071317 pbc="F F F"
Mg       0.00000000       0.00000000       0.00000000       0.00000000       0.00000000      -4.43907881
Mg       0.00000000       0.00000000       2.12000000       0.00000000       0.00000000       4.43907881
2
Properties=species:S:1:pos:R:3:forces:R:3 energy=0.7216531525523057 pbc="F F F"
Mg       0.00000000       0.00000000       0.00000000       0.00000000       0.00000000      -3.78732014
Mg       0.00000000       0.00000000       2.17878788       0.00000000       0.00000000       3.78732014
2
Properties=species:S:1:pos:R:3:forces:R:3 energy=0.5134095567301675 pbc="F F F"
Mg       0.00000000       0.00000000       0.00000000       0.00000000       0.00000000      -3.28812981
Mg       0.00000000       0.00000000       2.23757576       0.00000000       0.00000000       3.28812981
2
Properties=species:S:1:pos:R:3:forces:R:3 energy=0.33492012549635597 pbc="F F F"
Mg       0.00000000       0.00000000       0.00000000       0.00000000       0.00000000      -2.79405260
Mg       0.00000000       0.00000000       2.29636364       0.00000000       0.00000000       2.79405260
2
Properties=species:S:1:pos:R:3:forces:R:3 energy=0.18425593684050606 pbc="F F F"
Mg       0.00000000       0.00000000       0.00000000       0.00000000       0.00000000      -2.33696389
Mg       0.00000000       0.00000000       2.35515152       0.00000000       0.00000000       2.33696389
2
Properties=species:S:1:pos:R:3:forces:R:3 energy=0.05891914032990954 pbc="F F F"
Mg       0.00000000       0.00000000       0.00000000       0.00000000       0.00000000      -1.93858027
Mg       0.00000000       0.00000000       2.41393939       0.00000000       0.00000000       1.93858027
2
Properties=species:S:1:pos:R:3:forces:R:3 energy=-0.045002709590818216 pbc="F F F"
Mg       0.00000000       0.00000000       0.00000000       0.00000000       0.00000000      -1.60892439
Mg       0.00000000       0.00000000       2.47272727       0.00000000       0.00000000       1.60892439
2
Properties=species:S:1:pos:R:3:forces:R:3 energy=-0.13108833883073487 pbc="F F F"
Mg       0.00000000       0.00000000       0.00000000       0.00000000       0.00000000      -1.32082462
Mg       0.00000000       0.00000000       2.53151515       0.00000000       0.00000000       1.32082462
2
Properties=species:S:1:pos:R:3:forces:R:3 energy=-0.20056075336169213 pbc="F F F"
Mg       0.00000000       0.00000000       0.00000000       0.00000000       0.00000000      -1.04908216
Mg       0.00000000       0.00000000       2.59030303       0.00000000       0.00000000       1.04908216
2
Properties=species:S:1:pos:R:3:forces:R:3 energy=-0.2554347065872683 pbc="F F F"
Mg       0.00000000       0.00000000       0.00000000       0.00000000       0.00000000      -0.82597822
Mg       0.00000000       0.00000000       2.64909091       0.00000000       0.00000000       0.82597822
2
Properties=species:S:1:pos:R:3:forces:R:3 energy=-0.2983765805741799 pbc="F F F"
Mg       0.00000000       0.00000000       0.00000000       0.00000000       0.00000000      -0.63848388
Mg       0.00000000       0.00000000       2.70787879       0.00000000       0.00000000       0.63848388
2
Properties=species:S:1:pos:R:3:forces:R:3 energy=-0.33081457102453343 pbc="F F F"
Mg       0.00000000       0.00000000       0.00000000       0.00000000       0.00000000      -0.46816939
Mg       0.00000000       0.00000000       2.76666667       0.00000000       0.00000000       0.46816939
2
Properties=species:S:1:pos:R:3:forces:R:3 energy=-0.35394174991606775 pbc="F F F"
Mg       0.00000000       0.00000000       0.00000000       0.00000000       0.00000000      -0.32414597
Mg       0.00000000       0.00000000       2.82545455       0.00000000       0.00000000       0.32414597
2
Properties=species:S:1:pos:R:3:forces:R:3 energy=-0.3696031676942322 pbc="F F F"
Mg       0.00000000       0.00000000       0.00000000       0.00000000       0.00000000      -0.21400222
Mg       0.00000000       0.00000000       2.88424242       0.00000000       0.00000000       0.21400222
2
Properties=species:S:1:pos:R:3:forces:R:3 energy=-0.37961763948249566 pbc="F F F"
Mg       0.00000000       0.00000000       0.00000000       0.00000000       0.00000000      -0.13006006
Mg       0.00000000       0.00000000       2.94303030       0.00000000       0.00000000       0.13006006
2
Properties=species:S:1:pos:R:3:forces:R:3 energy=-0.3851744854743866 pbc="F F F"
Mg       0.00000000       0.00000000       0.00000000       0.00000000       0.00000000      -0.06059370
Mg       0.00000000       0.00000000       3.00181818       0.00000000       0.00000000       0.06059370
2
Properties=species:S:1:pos:R:3:forces:R:3 energy=-0.3868928849714435 pbc="F F F"
Mg       0.00000000       0.00000000       0.00000000       0.00000000       0.00000000       0.00093095
Mg       0.00000000       0.00000000       3.06060606       0.00000000       0.00000000      -0.00093095
2
Properties=species:S:1:pos:R:3:forces:R:3 energy=-0.3852460608929457 pbc="F F F"
Mg       0.00000000       0.00000000       0.00000000       0.00000000       0.00000000       0.05313691
Mg       0.00000000       0.00000000       3.11939394       0.00000000       0.00000000      -0.05313691
2
Properties=species:S:1:pos:R:3:forces:R:3 energy=-0.3809196165973279 pbc="F F F"
Mg       0.00000000       0.00000000       0.00000000       0.00000000       0.00000000       0.09142148
Mg       0.00000000       0.00000000       3.17818182       0.00000000       0.00000000      -0.09142148
2
Properties=species:S:1:pos:R:3:forces:R:3 energy=-0.374790095030459 pbc="F F F"
Mg       0.00000000       0.00000000       0.00000000       0.00000000       0.00000000       0.11499177
Mg       0.00000000       0.00000000       3.23696970       0.00000000       0.00000000      -0.11499177
2
Properties=species:S:1:pos:R:3:forces:R:3 energy=-0.36756112685777215 pbc="F F F"
Mg       0.00000000       0.00000000       0.00000000       0.00000000       0.00000000       0.13047752
Mg       0.00000000       0.00000000       3.29575758       0.00000000       0.00000000      -0.13047752
2
Properties=species:S:1:pos:R:3:forces:R:3 energy=-0.35940924569981564 pbc="F F F"
Mg       0.00000000       0.00000000       0.00000000       0.00000000       0.00000000       0.14776680
Mg       0.00000000       0.00000000       3.35454545       0.00000000       0.00000000      -0.14776680
2
Properties=species:S:1:pos:R:3:forces:R:3 energy=-0.35007265441755986 pbc="F F F"
Mg       0.00000000       0.00000000       0.00000000       0.00000000       0.00000000       0.17058347
Mg       0.00000000       0.00000000       3.41333333       0.00000000       0.00000000      -0.17058347
2
Properties=species:S:1:pos:R:3:forces:R:3 energy=-0.33932519836789615 pbc="F F F"
Mg       0.00000000       0.00000000       0.00000000       0.00000000       0.00000000       0.19483033
Mg       0.00000000       0.00000000       3.47212121       0.00000000       0.00000000      -0.19483033
2
Properties=species:S:1:pos:R:3:forces:R:3 energy=-0.3272338995502744 pbc="F F F"
Mg       0.00000000       0.00000000       0.00000000       0.00000000       0.00000000       0.21568604
Mg       0.00000000       0.00000000       3.53090909       0.00000000       0.00000000      -0.21568604
2
Properties=species:S:1:pos:R:3:forces:R:3 energy=-0.31406550700146263 pbc="F F F"
Mg       0.00000000       0.00000000       0.00000000       0.00000000       0.00000000       0.23153242
Mg       0.00000000       0.00000000       3.58969697       0.00000000       0.00000000      -0.23153242
2
Properties=species:S:1:pos:R:3:forces:R:3 energy=-0.30010165059516836 pbc="F F F"
Mg       0.00000000       0.00000000       0.00000000       0.00000000       0.00000000       0.24279407
Mg       0.00000000       0.00000000       3.64848485       0.00000000       0.00000000      -0.24279407
2
Properties=species:S:1:pos:R:3:forces:R:3 energy=-0.2855909828568388 pbc="F F F"
Mg       0.00000000       0.00000000       0.00000000       0.00000000       0.00000000       0.25032735
Mg       0.00000000       0.00000000       3.70727273       0.00000000       0.00000000      -0.25032735
2
Properties=species:S:1:pos:R:3:forces:R:3 energy=-0.27072834269340823 pbc="F F F"
Mg       0.00000000       0.00000000       0.00000000       0.00000000       0.00000000       0.25486287
Mg       0.00000000       0.00000000       3.76606061       0.00000000       0.00000000      -0.25486287
2
Properties=species:S:1:pos:R:3:forces:R:3 energy=-0.25567422642671767 pbc="F F F"
Mg       0.00000000       0.00000000       0.00000000       0.00000000       0.00000000       0.25692022
Mg       0.00000000       0.00000000       3.82484848       0.00000000       0.00000000      -0.25692022
2
Properties=species:S:1:pos:R:3:forces:R:3 energy=-0.24056361405075607 pbc="F F F"
Mg       0.00000000       0.00000000       0.00000000       0.00000000       0.00000000       0.25680032
Mg       0.00000000       0.00000000       3.88363636       0.00000000       0.00000000      -0.25680032
2
Properties=species:S:1:pos:R:3:forces:R:3 energy=-0.22551974656973134 pbc="F F F"
Mg       0.00000000       0.00000000       0.00000000       0.00000000       0.00000000       0.25463882
Mg       0.00000000       0.00000000       3.94242424       0.00000000       0.00000000      -0.25463882
2
Properties=species:S:1:pos:R:3:forces:R:3 energy=-0.21066260174600188 pbc="F F F"
Mg       0.00000000       0.00000000       0.00000000       0.00000000       0.00000000       0.25051954
Mg       0.00000000       0.00000000       4.00121212       0.00000000       0.00000000      -0.25051954
2
Properties=species:S:1:pos:R:3:forces:R:3 energy=-0.19610031506363787 pbc="F F F"
Mg       0.00000000       0.00000000       0.00000000       0.00000000       0.00000000       0.24461576
Mg       0.00000000       0.00000000       4.06000000       0.00000000       0.00000000      -0.24461576
2
Properties=species:S:1:pos:R:3:forces:R:3 energy=-0.18193032148853075 pbc="F F F"
Mg       0.00000000       0.00000000       0.00000000       0.00000000       0.00000000       0.23725419
Mg       0.00000000       0.00000000       4.11878788       0.00000000       0.00000000      -0.23725419
2
Properties=species:S:1:pos:R:3:forces:R:3 energy=-0.16822644419539218 pbc="F F F"
Mg       0.00000000       0.00000000       0.00000000       0.00000000       0.00000000       0.22885489
Mg       0.00000000       0.00000000       4.17757576       0.00000000       0.00000000      -0.22885489
2
Properties=species:S:1:pos:R:3:forces:R:3 energy=-0.15503496250121906 pbc="F F F"
Mg       0.00000000       0.00000000       0.00000000       0.00000000       0.00000000       0.21981663
Mg       0.00000000       0.00000000       4.23636364       0.00000000       0.00000000      -0.21981663
2
Properties=species:S:1:pos:R:3:forces:R:3 energy=-0.14238690659726225 pbc="F F F"
Mg       0.00000000       0.00000000       0.00000000       0.00000000       0.00000000       0.21043155
Mg       0.00000000       0.00000000       4.29515152       0.00000000       0.00000000      -0.21043155
2
Properties=species:S:1:pos:R:3:forces:R:3 energy=-0.13029640996180955 pbc="F F F"
Mg       0.00000000       0.00000000       0.00000000       0.00000000       0.00000000       0.20087367
Mg       0.00000000       0.00000000       4.35393939       0.00000000       0.00000000      -0.20087367
2
Properties=species:S:1:pos:R:3:forces:R:3 energy=-0.11877065958406534 pbc="F F F"
Mg       0.00000000       0.00000000       0.00000000       0.00000000       0.00000000       0.19122766
Mg       0.00000000       0.00000000       4.41272727       0.00000000       0.00000000      -0.19122766
2
Properties=species:S:1:pos:R:3:forces:R:3 energy=-0.10781326867030146 pbc="F F F"
Mg       0.00000000       0.00000000       0.00000000       0.00000000       0.00000000       0.18152426
Mg       0.00000000       0.00000000       4.47151515       0.00000000       0.00000000      -0.18152426
2
Properties=species:S:1:pos:R:3:forces:R:3 energy=-0.09742805015943493 pbc="F F F"
Mg       0.00000000       0.00000000       0.00000000       0.00000000       0.00000000       0.17176411
Mg       0.00000000       0.00000000       4.53030303       0.00000000       0.00000000      -0.17176411
2
Properties=species:S:1:pos:R:3:forces:R:3 energy=-0.08761931932996803 pbc="F F F"
Mg       0.00000000       0.00000000       0.00000000       0.00000000       0.00000000       0.16193953
Mg       0.00000000       0.00000000       4.58909091       0.00000000       0.00000000      -0.16193953
2
Properties=species:S:1:pos:R:3:forces:R:3 energy=-0.07838948110379797 pbc="F F F"
Mg       0.00000000       0.00000000       0.00000000       0.00000000       0.00000000       0.15207100
Mg       0.00000000       0.00000000       4.64787879       0.00000000       0.00000000      -0.15207100
2
Properties=species:S:1:pos:R:3:forces:R:3 energy=-0.06973953856159654 pbc="F F F"
Mg       0.00000000       0.00000000       0.00000000       0.00000000       0.00000000       0.14223392
Mg       0.00000000       0.00000000       4.70666667       0.00000000       0.00000000      -0.14223392
2
Properties=species:S:1:pos:R:3:forces:R:3 energy=-0.06166271666171318 pbc="F F F"
Mg       0.00000000       0.00000000       0.00000000       0.00000000       0.00000000       0.13258427
Mg       0.00000000       0.00000000       4.76545455       0.00000000       0.00000000      -0.13258427
2
Properties=species:S:1:pos:R:3:forces:R:3 energy=-0.05414215408211558 pbc="F F F"
Mg       0.00000000       0.00000000       0.00000000       0.00000000       0.00000000       0.12335153
Mg       0.00000000       0.00000000       4.82424242       0.00000000       0.00000000      -0.12335153
2
Properties=species:S:1:pos:R:3:forces:R:3 energy=-0.0471461760304955 pbc="F F F"
Mg       0.00000000       0.00000000       0.00000000       0.00000000       0.00000000       0.11479478
Mg       0.00000000       0.00000000       4.88303030       0.00000000       0.00000000      -0.11479478
2
Properties=species:S:1:pos:R:3:forces:R:3 energy=-0.04062677186595189 pbc="F F F"
Mg       0.00000000       0.00000000       0.00000000       0.00000000       0.00000000       0.10714243
Mg       0.00000000       0.00000000       4.94181818       0.00000000       0.00000000      -0.10714243
2
Properties=species:S:1:pos:R:3:forces:R:3 energy=-0.034528355565878854 pbc="F F F"
Mg       0.00000000       0.00000000       0.00000000       0.00000000       0.00000000       0.10051314
Mg       0.00000000       0.00000000       5.00060606       0.00000000       0.00000000      -0.10051314
2
Properties=species:S:1:pos:R:3:forces:R:3 energy=-0.028789262761705334 pbc="F F F"
Mg       0.00000000       0.00000000       0.00000000       0.00000000       0.00000000       0.09486743
Mg       0.00000000       0.00000000       5.05939394       0.00000000       0.00000000      -0.09486743
2
Properties=species:S:1:pos:R:3:forces:R:3 energy=-0.023359864215262562 pbc="F F F"
Mg       0.00000000       0.00000000       0.00000000       0.00000000       0.00000000       0.08998752
Mg       0.00000000       0.00000000       5.11818182       0.00000000       0.00000000      -0.08998752
2
Properties=species:S:1:pos:R:3:forces:R:3 energy=-0.01820174360908677 pbc="F F F"
Mg       0.00000000       0.00000000       0.00000000       0.00000000       0.00000000       0.08551417
Mg       0.00000000       0.00000000       5.17696970       0.00000000       0.00000000      -0.08551417
2
Properties=species:S:1:pos:R:3:forces:R:3 energy=-0.013305929816117185 pbc="F F F"
Mg       0.00000000       0.00000000       0.00000000       0.00000000       0.00000000       0.08101157
Mg       0.00000000       0.00000000       5.23575758       0.00000000       0.00000000      -0.08101157
2
Properties=species:S:1:pos:R:3:forces:R:3 energy=-0.008686278200279823 pbc="F F F"
Mg       0.00000000       0.00000000       0.00000000       0.00000000       0.00000000       0.07606437
Mg       0.00000000       0.00000000       5.29454545       0.00000000       0.00000000      -0.07606437
2
Properties=species:S:1:pos:R:3:forces:R:3 energy=-0.0043766967086473554 pbc="F F F"
Mg       0.00000000       0.00000000       0.00000000       0.00000000       0.00000000       0.07036361
Mg       0.00000000       0.00000000       5.35333333       0.00000000       0.00000000      -0.07036361
2
Properties=species:S:1:pos:R:3:forces:R:3 energy=-0.00042932880573751456 pbc="F F F"
Mg       0.00000000       0.00000000       0.00000000       0.00000000       0.00000000       0.06378163
Mg       0.00000000       0.00000000       5.41212121       0.00000000       0.00000000      -0.06378163
2
Properties=species:S:1:pos:R:3:forces:R:3 energy=0.003106379844115638 pbc="F F F"
Mg       0.00000000       0.00000000       0.00000000       0.00000000       0.00000000       0.05639461
Mg       0.00000000       0.00000000       5.47090909       0.00000000       0.00000000      -0.05639461
2
Properties=species:S:1:pos:R:3:forces:R:3 energy=0.00618976305039887 pbc="F F F"
Mg       0.00000000       0.00000000       0.00000000       0.00000000       0.00000000       0.04847939
Mg       0.00000000       0.00000000       5.52969697       0.00000000       0.00000000      -0.04847939
2
Properties=species:S:1:pos:R:3:forces:R:3 energy=0.008804696649128734 pbc="F F F"
Mg       0.00000000       0.00000000       0.00000000       0.00000000       0.00000000       0.04045727
Mg       0.00000000       0.00000000       5.58848485       0.00000000       0.00000000      -0.04045727
2
Properties=species:S:1:pos:R:3:forces:R:3 energy=0.01095464639758496 pbc="F F F"
Mg       0.00000000       0.00000000       0.00000000       0.00000000       0.00000000       0.03282744
Mg       0.00000000       0.00000000       5.64727273       0.00000000       0.00000000      -0.03282744
2
Properties=species:S:1:pos:R:3:forces:R:3 energy=0.012680410735561639 pbc="F F F"
Mg       0.00000000       0.00000000       0.00000000       0.00000000       0.00000000       0.02607020
Mg       0.00000000       0.00000000       5.70606061       0.00000000       0.00000000      -0.02607020
2
Properties=species:S:1:pos:R:3:forces:R:3 energy=0.01404521845622129 pbc="F F F"
Mg       0.00000000       0.00000000       0.00000000       0.00000000       0.00000000       0.02055800
Mg       0.00000000       0.00000000       5.76484848       0.00000000       0.00000000      -0.02055800
2
Properties=species:S:1:pos:R:3:forces:R:3 energy=0.015127037539031732 pbc="F F F"
Mg       0.00000000       0.00000000       0.00000000       0.00000000       0.00000000       0.01649377
Mg       0.00000000       0.00000000       5.82363636       0.00000000       0.00000000      -0.01649377
2
Properties=species:S:1:pos:R:3:forces:R:3 energy=0.01601053544234174 pbc="F F F"
Mg       0.00000000       0.00000000       0.00000000       0.00000000       0.00000000       0.01384301
Mg       0.00000000       0.00000000       5.88242424       0.00000000       0.00000000      -0.01384301
2
Properties=species:S:1:pos:R:3:forces:R:3 energy=0.016776983951638465 pbc="F F F"
Mg       0.00000000       0.00000000       0.00000000       0.00000000       0.00000000       0.01233720
Mg       0.00000000       0.00000000       5.94121212       0.00000000       0.00000000      -0.01233720
2
Properties=species:S:1:pos:R:3:forces:R:3 energy=0.017476101236591803 pbc="F F F"
Mg       0.00000000       0.00000000       0.00000000       0.00000000       0.00000000       0.01149992
Mg       0.00000000       0.00000000       6.00000000       0.00000000       0.00000000      -0.01149992
