2
Properties=species:S:1:pos:R:3:forces:R:3 energy=277210367.9348006 pbc="F F F"
Mo       0.00000000       0.00000000       0.00000000       0.00000000       0.00000000 -1714740992.00000000
Mo       0.00000000       0.00000000       0.10000000       0.00000000       0.00000000 1714740992.00000000
2
Properties=species:S:1:pos:R:3:forces:R:3 energy=167988767.93480062 pbc="F F F"
Mo       0.00000000       0.00000000       0.00000000       0.00000000       0.00000000 -1821558272.00000000
Mo       0.00000000       0.00000000       0.15959596       0.00000000       0.00000000 1821558272.00000000
2
Properties=species:S:1:pos:R:3:forces:R:3 energy=73209647.93480062 pbc="F F F"
Mo       0.00000000       0.00000000       0.00000000       0.00000000       0.00000000 -1279659520.00000000
Mo       0.00000000       0.00000000       0.21919192       0.00000000       0.00000000 1279659520.00000000
2
Properties=species:S:1:pos:R:3:forces:R:3 energy=24653309.934800625 pbc="F F F"
Mo       0.00000000       0.00000000       0.00000000       0.00000000       0.00000000 -521310432.00000000
Mo       0.00000000       0.00000000       0.27878788       0.00000000       0.00000000 521310432.00000000
2
Properties=species:S:1:pos:R:3:forces:R:3 energy=5926521.434800632 pbc="F F F"
Mo       0.00000000       0.00000000       0.00000000       0.00000000       0.00000000 -151852144.00000000
Mo       0.00000000       0.00000000       0.33838384       0.00000000       0.00000000 151852144.00000000
2
Properties=species:S:1:pos:R:3:forces:R:3 energy=1400285.9348006386 pbc="F F F"
Mo       0.00000000       0.00000000       0.00000000       0.00000000       0.00000000 -31801630.00000000
Mo       0.00000000       0.00000000       0.39797980       0.00000000       0.00000000 31801630.00000000
2
Properties=species:S:1:pos:R:3:forces:R:3 energy=957507.4973006512 pbc="F F F"
Mo       0.00000000       0.00000000       0.00000000       0.00000000       0.00000000 -16059890.00000000
Mo       0.00000000       0.00000000       0.45757576       0.00000000       0.00000000 16059890.00000000
2
Properties=species:S:1:pos:R:3:forces:R:3 energy=181594.5910506765 pbc="F F F"
Mo       0.00000000       0.00000000       0.00000000       0.00000000       0.00000000 -7236409.00000000
Mo       0.00000000       0.00000000       0.51717172       0.00000000       0.00000000 7236409.00000000
2
Properties=species:S:1:pos:R:3:forces:R:3 energy=6159.1559921271055 pbc="F F F"
Mo       0.00000000       0.00000000       0.00000000       0.00000000       0.00000000 -645657.81250000
Mo       0.00000000       0.00000000       0.57676768       0.00000000       0.00000000  645657.81250000
2
Properties=species:S:1:pos:R:3:forces:R:3 energy=-10585.887464828116 pbc="F F F"
Mo       0.00000000       0.00000000       0.00000000       0.00000000       0.00000000  -83799.85156250
Mo       0.00000000       0.00000000       0.63636364       0.00000000       0.00000000   83799.85156250
2
Properties=species:S:1:pos:R:3:forces:R:3 energy=-10726.290785013904 pbc="F F F"
Mo       0.00000000       0.00000000       0.00000000       0.00000000       0.00000000   70358.35156250
Mo       0.00000000       0.00000000       0.69595960       0.00000000       0.00000000  -70358.35156250
2
Properties=species:S:1:pos:R:3:forces:R:3 energy=-4261.330335598748 pbc="F F F"
Mo       0.00000000       0.00000000       0.00000000       0.00000000       0.00000000   80380.24218750
Mo       0.00000000       0.00000000       0.75555556       0.00000000       0.00000000  -80380.24218750
2
Properties=species:S:1:pos:R:3:forces:R:3 energy=-1259.198377305832 pbc="F F F"
Mo       0.00000000       0.00000000       0.00000000       0.00000000       0.00000000   26322.36132812
Mo       0.00000000       0.00000000       0.81515152       0.00000000       0.00000000  -26322.36132812
2
Properties=species:S:1:pos:R:3:forces:R:3 energy=-376.358899348617 pbc="F F F"
Mo       0.00000000       0.00000000       0.00000000       0.00000000       0.00000000   10029.82812500
Mo       0.00000000       0.00000000       0.87474747       0.00000000       0.00000000  -10029.82812500
2
Properties=species:S:1:pos:R:3:forces:R:3 energy=161.53747880407448 pbc="F F F"
Mo       0.00000000       0.00000000       0.00000000       0.00000000       0.00000000    7524.49853516
Mo       0.00000000       0.00000000       0.93434343       0.00000000       0.00000000   -7524.49853516
2
Properties=species:S:1:pos:R:3:forces:R:3 energy=404.7074472727398 pbc="F F F"
Mo       0.00000000       0.00000000       0.00000000       0.00000000       0.00000000    1108.33740234
Mo       0.00000000       0.00000000       0.99393939       0.00000000       0.00000000   -1108.33740234
2
Properties=species:S:1:pos:R:3:forces:R:3 energy=373.8524679063919 pbc="F F F"
Mo       0.00000000       0.00000000       0.00000000       0.00000000       0.00000000   -1891.80786133
Mo       0.00000000       0.00000000       1.05353535       0.00000000       0.00000000    1891.80786133
2
Properties=species:S:1:pos:R:3:forces:R:3 energy=250.26758474537797 pbc="F F F"
Mo       0.00000000       0.00000000       0.00000000       0.00000000       0.00000000   -2248.02539062
Mo       0.00000000       0.00000000       1.11313131       0.00000000       0.00000000    2248.02539062
2
Properties=species:S:1:pos:R:3:forces:R:3 energy=129.9137048608189 pbc="F F F"
Mo       0.00000000       0.00000000       0.00000000       0.00000000       0.00000000   -1508.36901855
Mo       0.00000000       0.00000000       1.17272727       0.00000000       0.00000000    1508.36901855
2
Properties=species:S:1:pos:R:3:forces:R:3 energy=66.57432903814303 pbc="F F F"
Mo       0.00000000       0.00000000       0.00000000       0.00000000       0.00000000    -764.76568604
Mo       0.00000000       0.00000000       1.23232323       0.00000000       0.00000000     764.76568604
2
Properties=species:S:1:pos:R:3:forces:R:3 energy=36.10257631321889 pbc="F F F"
Mo       0.00000000       0.00000000       0.00000000       0.00000000       0.00000000    -315.02557373
Mo       0.00000000       0.00000000       1.29191919       0.00000000       0.00000000     315.02557373
2
Properties=species:S:1:pos:R:3:forces:R:3 energy=22.227578549381626 pbc="F F F"
Mo       0.00000000       0.00000000       0.00000000       0.00000000       0.00000000    -176.82443237
Mo       0.00000000       0.00000000       1.35151515       0.00000000       0.00000000     176.82443237
2
Properties=species:S:1:pos:R:3:forces:R:3 energy=11.95056615122616 pbc="F F F"
Mo       0.00000000       0.00000000       0.00000000       0.00000000       0.00000000    -167.04951477
Mo       0.00000000       0.00000000       1.41111111       0.00000000       0.00000000     167.04951477
2
Properties=species:S:1:pos:R:3:forces:R:3 energy=3.943360953745256 pbc="F F F"
Mo       0.00000000       0.00000000       0.00000000       0.00000000       0.00000000     -96.37251282
Mo       0.00000000       0.00000000       1.47070707       0.00000000       0.00000000      96.37251282
2
Properties=species:S:1:pos:R:3:forces:R:3 energy=-0.47254746820015925 pbc="F F F"
Mo       0.00000000       0.00000000       0.00000000       0.00000000       0.00000000     -59.67883682
Mo       0.00000000       0.00000000       1.53030303       0.00000000       0.00000000      59.67883682
2
Properties=species:S:1:pos:R:3:forces:R:3 energy=-3.4942432563859738 pbc="F F F"
Mo       0.00000000       0.00000000       0.00000000       0.00000000       0.00000000     -43.78965759
Mo       0.00000000       0.00000000       1.58989899       0.00000000       0.00000000      43.78965759
2
Properties=species:S:1:pos:R:3:forces:R:3 energy=-5.876117770592669 pbc="F F F"
Mo       0.00000000       0.00000000       0.00000000       0.00000000       0.00000000     -36.61072159
Mo       0.00000000       0.00000000       1.64949495       0.00000000       0.00000000      36.61072159
2
Properties=species:S:1:pos:R:3:forces:R:3 energy=-7.894398600738323 pbc="F F F"
Mo       0.00000000       0.00000000       0.00000000       0.00000000       0.00000000     -30.87823296
Mo       0.00000000       0.00000000       1.70909091       0.00000000       0.00000000      30.87823296
2
Properties=species:S:1:pos:R:3:forces:R:3 energy=-9.503816309883597 pbc="F F F"
Mo       0.00000000       0.00000000       0.00000000       0.00000000       0.00000000     -23.10760307
Mo       0.00000000       0.00000000       1.76868687       0.00000000       0.00000000      23.10760307
2
Properties=species:S:1:pos:R:3:forces:R:3 energy=-10.696735401312685 pbc="F F F"
Mo       0.00000000       0.00000000       0.00000000       0.00000000       0.00000000     -17.07358170
Mo       0.00000000       0.00000000       1.82828283       0.00000000       0.00000000      17.07358170
2
Properties=species:S:1:pos:R:3:forces:R:3 energy=-11.509796590454997 pbc="F F F"
Mo       0.00000000       0.00000000       0.00000000       0.00000000       0.00000000     -10.63240814
Mo       0.00000000       0.00000000       1.88787879       0.00000000       0.00000000      10.63240814
2
Properties=species:S:1:pos:R:3:forces:R:3 energy=-11.996872679682903 pbc="F F F"
Mo       0.00000000       0.00000000       0.00000000       0.00000000       0.00000000      -5.73979712
Mo       0.00000000       0.00000000       1.94747475       0.00000000       0.00000000       5.73979712
2
Properties=species:S:1:pos:R:3:forces:R:3 energy=-12.212088482142795 pbc="F F F"
Mo       0.00000000       0.00000000       0.00000000       0.00000000       0.00000000      -1.76841700
Mo       0.00000000       0.00000000       2.00707071       0.00000000       0.00000000       1.76841700
2
Properties=species:S:1:pos:R:3:forces:R:3 energy=-12.241051805289542 pbc="F F F"
Mo       0.00000000       0.00000000       0.00000000       0.00000000       0.00000000       0.61248064
Mo       0.00000000       0.00000000       2.06666667       0.00000000       0.00000000      -0.61248064
2
Properties=species:S:1:pos:R:3:forces:R:3 energy=-12.151659944918407 pbc="F F F"
Mo       0.00000000       0.00000000       0.00000000       0.00000000       0.00000000       2.29645419
Mo       0.00000000       0.00000000       2.12626263       0.00000000       0.00000000      -2.29645419
2
Properties=species:S:1:pos:R:3:forces:R:3 energy=-11.98002266964296 pbc="F F F"
Mo       0.00000000       0.00000000       0.00000000       0.00000000       0.00000000       3.35408664
Mo       0.00000000       0.00000000       2.18585859       0.00000000       0.00000000      -3.35408664
2
Properties=species:S:1:pos:R:3:forces:R:3 energy=-11.762590671990061 pbc="F F F"
Mo       0.00000000       0.00000000       0.00000000       0.00000000       0.00000000       3.87246490
Mo       0.00000000       0.00000000       2.24545455       0.00000000       0.00000000      -3.87246490
2
Properties=species:S:1:pos:R:3:forces:R:3 energy=-11.526240637692686 pbc="F F F"
Mo       0.00000000       0.00000000       0.00000000       0.00000000       0.00000000       3.99880910
Mo       0.00000000       0.00000000       2.30505051       0.00000000       0.00000000      -3.99880910
2
Properties=species:S:1:pos:R:3:forces:R:3 energy=-11.291281214144243 pbc="F F F"
Mo       0.00000000       0.00000000       0.00000000       0.00000000       0.00000000       3.85785985
Mo       0.00000000       0.00000000       2.36464646       0.00000000       0.00000000      -3.85785985
2
Properties=species:S:1:pos:R:3:forces:R:3 energy=-11.068817871566443 pbc="F F F"
Mo       0.00000000       0.00000000       0.00000000       0.00000000       0.00000000       3.59333992
Mo       0.00000000       0.00000000       2.42424242       0.00000000       0.00000000      -3.59333992
2
Properties=species:S:1:pos:R:3:forces:R:3 energy=-10.864982283236408 pbc="F F F"
Mo       0.00000000       0.00000000       0.00000000       0.00000000       0.00000000       3.22575831
Mo       0.00000000       0.00000000       2.48383838       0.00000000       0.00000000      -3.22575831
2
Properties=species:S:1:pos:R:3:forces:R:3 energy=-10.68623331220787 pbc="F F F"
Mo       0.00000000       0.00000000       0.00000000       0.00000000       0.00000000       2.76873231
Mo       0.00000000       0.00000000       2.54343434       0.00000000       0.00000000      -2.76873231
2
Properties=species:S:1:pos:R:3:forces:R:3 energy=-10.534490020513468 pbc="F F F"
Mo       0.00000000       0.00000000       0.00000000       0.00000000       0.00000000       2.33182144
Mo       0.00000000       0.00000000       2.60303030       0.00000000       0.00000000      -2.33182144
2
Properties=species:S:1:pos:R:3:forces:R:3 energy=-10.406949969249938 pbc="F F F"
Mo       0.00000000       0.00000000       0.00000000       0.00000000       0.00000000       1.96256018
Mo       0.00000000       0.00000000       2.66262626       0.00000000       0.00000000      -1.96256018
2
Properties=species:S:1:pos:R:3:forces:R:3 energy=-10.298971918963467 pbc="F F F"
Mo       0.00000000       0.00000000       0.00000000       0.00000000       0.00000000       1.67118013
Mo       0.00000000       0.00000000       2.72222222       0.00000000       0.00000000      -1.67118013
2
Properties=species:S:1:pos:R:3:forces:R:3 energy=-10.206939608793196 pbc="F F F"
Mo       0.00000000       0.00000000       0.00000000       0.00000000       0.00000000       1.42238927
Mo       0.00000000       0.00000000       2.78181818       0.00000000       0.00000000      -1.42238927
2
Properties=species:S:1:pos:R:3:forces:R:3 energy=-10.128846259942156 pbc="F F F"
Mo       0.00000000       0.00000000       0.00000000       0.00000000       0.00000000       1.20361531
Mo       0.00000000       0.00000000       2.84141414       0.00000000       0.00000000      -1.20361531
2
Properties=species:S:1:pos:R:3:forces:R:3 energy=-10.062813537294739 pbc="F F F"
Mo       0.00000000       0.00000000       0.00000000       0.00000000       0.00000000       1.01863050
Mo       0.00000000       0.00000000       2.90101010       0.00000000       0.00000000      -1.01863050
2
Properties=species:S:1:pos:R:3:forces:R:3 energy=-10.006595819600612 pbc="F F F"
Mo       0.00000000       0.00000000       0.00000000       0.00000000       0.00000000       0.87592846
Mo       0.00000000       0.00000000       2.96060606       0.00000000       0.00000000      -0.87592846
2
Properties=species:S:1:pos:R:3:forces:R:3 energy=-9.957441713274449 pbc="F F F"
Mo       0.00000000       0.00000000       0.00000000       0.00000000       0.00000000       0.78113234
Mo       0.00000000       0.00000000       3.02020202       0.00000000       0.00000000      -0.78113234
2
Properties=species:S:1:pos:R:3:forces:R:3 energy=-9.912820458050275 pbc="F F F"
Mo       0.00000000       0.00000000       0.00000000       0.00000000       0.00000000       0.71956027
Mo       0.00000000       0.00000000       3.07979798       0.00000000       0.00000000      -0.71956027
2
Properties=species:S:1:pos:R:3:forces:R:3 energy=-9.871513707487718 pbc="F F F"
Mo       0.00000000       0.00000000       0.00000000       0.00000000       0.00000000       0.66683793
Mo       0.00000000       0.00000000       3.13939394       0.00000000       0.00000000      -0.66683793
2
Properties=species:S:1:pos:R:3:forces:R:3 energy=-9.83332973157451 pbc="F F F"
Mo       0.00000000       0.00000000       0.00000000       0.00000000       0.00000000       0.61508417
Mo       0.00000000       0.00000000       3.19898990       0.00000000       0.00000000      -0.61508417
2
Properties=species:S:1:pos:R:3:forces:R:3 energy=-9.798077326912962 pbc="F F F"
Mo       0.00000000       0.00000000       0.00000000       0.00000000       0.00000000       0.56936115
Mo       0.00000000       0.00000000       3.25858586       0.00000000       0.00000000      -0.56936115
2
Properties=species:S:1:pos:R:3:forces:R:3 energy=-9.76529826280899 pbc="F F F"
Mo       0.00000000       0.00000000       0.00000000       0.00000000       0.00000000       0.53190190
Mo       0.00000000       0.00000000       3.31818182       0.00000000       0.00000000      -0.53190190
2
Properties=species:S:1:pos:R:3:forces:R:3 energy=-9.734572750933907 pbc="F F F"
Mo       0.00000000       0.00000000       0.00000000       0.00000000       0.00000000       0.49979725
Mo       0.00000000       0.00000000       3.37777778       0.00000000       0.00000000      -0.49979725
2
Properties=species:S:1:pos:R:3:forces:R:3 energy=-9.705689623913223 pbc="F F F"
Mo       0.00000000       0.00000000       0.00000000       0.00000000       0.00000000       0.46967474
Mo       0.00000000       0.00000000       3.43737374       0.00000000       0.00000000      -0.46967474
2
Properties=species:S:1:pos:R:3:forces:R:3 energy=-9.678565696030107 pbc="F F F"
Mo       0.00000000       0.00000000       0.00000000       0.00000000       0.00000000       0.44097844
Mo       0.00000000       0.00000000       3.49696970       0.00000000       0.00000000      -0.44097844
2
Properties=species:S:1:pos:R:3:forces:R:3 energy=-9.653067899703036 pbc="F F F"
Mo       0.00000000       0.00000000       0.00000000       0.00000000       0.00000000       0.41527969
Mo       0.00000000       0.00000000       3.55656566       0.00000000       0.00000000      -0.41527969
2
Properties=species:S:1:pos:R:3:forces:R:3 energy=-9.628983838311854 pbc="F F F"
Mo       0.00000000       0.00000000       0.00000000       0.00000000       0.00000000       0.39367539
Mo       0.00000000       0.00000000       3.61616162       0.00000000       0.00000000      -0.39367539
2
Properties=species:S:1:pos:R:3:forces:R:3 energy=-9.606075480071462 pbc="F F F"
Mo       0.00000000       0.00000000       0.00000000       0.00000000       0.00000000       0.37561435
Mo       0.00000000       0.00000000       3.67575758       0.00000000       0.00000000      -0.37561435
2
Properties=species:S:1:pos:R:3:forces:R:3 energy=-9.584172858869305 pbc="F F F"
Mo       0.00000000       0.00000000       0.00000000       0.00000000       0.00000000       0.35958722
Mo       0.00000000       0.00000000       3.73535354       0.00000000       0.00000000      -0.35958722
2
Properties=species:S:1:pos:R:3:forces:R:3 energy=-9.563204024643484 pbc="F F F"
Mo       0.00000000       0.00000000       0.00000000       0.00000000       0.00000000       0.34417588
Mo       0.00000000       0.00000000       3.79494949       0.00000000       0.00000000      -0.34417588
2
Properties=species:S:1:pos:R:3:forces:R:3 energy=-9.543155657631795 pbc="F F F"
Mo       0.00000000       0.00000000       0.00000000       0.00000000       0.00000000       0.32850879
Mo       0.00000000       0.00000000       3.85454545       0.00000000       0.00000000      -0.32850879
2
Properties=species:S:1:pos:R:3:forces:R:3 energy=-9.524061266156165 pbc="F F F"
Mo       0.00000000       0.00000000       0.00000000       0.00000000       0.00000000       0.31221354
Mo       0.00000000       0.00000000       3.91414141       0.00000000       0.00000000      -0.31221354
2
Properties=species:S:1:pos:R:3:forces:R:3 energy=-9.505954916075227 pbc="F F F"
Mo       0.00000000       0.00000000       0.00000000       0.00000000       0.00000000       0.29524451
Mo       0.00000000       0.00000000       3.97373737       0.00000000       0.00000000      -0.29524451
2
Properties=species:S:1:pos:R:3:forces:R:3 energy=-9.48887845770558 pbc="F F F"
Mo       0.00000000       0.00000000       0.00000000       0.00000000       0.00000000       0.27782625
Mo       0.00000000       0.00000000       4.03333333       0.00000000       0.00000000      -0.27782625
2
Properties=species:S:1:pos:R:3:forces:R:3 energy=-9.472839228362714 pbc="F F F"
Mo       0.00000000       0.00000000       0.00000000       0.00000000       0.00000000       0.26045078
Mo       0.00000000       0.00000000       4.09292929       0.00000000       0.00000000      -0.26045078
2
Properties=species:S:1:pos:R:3:forces:R:3 energy=-9.4578206568201 pbc="F F F"
Mo       0.00000000       0.00000000       0.00000000       0.00000000       0.00000000       0.24379264
Mo       0.00000000       0.00000000       4.15252525       0.00000000       0.00000000      -0.24379264
2
Properties=species:S:1:pos:R:3:forces:R:3 energy=-9.44375655845215 pbc="F F F"
Mo       0.00000000       0.00000000       0.00000000       0.00000000       0.00000000       0.22848886
Mo       0.00000000       0.00000000       4.21212121       0.00000000       0.00000000      -0.22848886
2
Properties=species:S:1:pos:R:3:forces:R:3 energy=-9.430551932335492 pbc="F F F"
Mo       0.00000000       0.00000000       0.00000000       0.00000000       0.00000000       0.21489829
Mo       0.00000000       0.00000000       4.27171717       0.00000000       0.00000000      -0.21489829
2
Properties=species:S:1:pos:R:3:forces:R:3 energy=-9.41810684112075 pbc="F F F"
Mo       0.00000000       0.00000000       0.00000000       0.00000000       0.00000000       0.20299135
Mo       0.00000000       0.00000000       4.33131313       0.00000000       0.00000000      -0.20299135
2
Properties=species:S:1:pos:R:3:forces:R:3 energy=-9.406331505094853 pbc="F F F"
Mo       0.00000000       0.00000000       0.00000000       0.00000000       0.00000000       0.19239970
Mo       0.00000000       0.00000000       4.39090909       0.00000000       0.00000000      -0.19239970
2
Properties=species:S:1:pos:R:3:forces:R:3 energy=-9.395159526908577 pbc="F F F"
Mo       0.00000000       0.00000000       0.00000000       0.00000000       0.00000000       0.18257815
Mo       0.00000000       0.00000000       4.45050505       0.00000000       0.00000000      -0.18257815
2
Properties=species:S:1:pos:R:3:forces:R:3 energy=-9.38456497535087 pbc="F F F"
Mo       0.00000000       0.00000000       0.00000000       0.00000000       0.00000000       0.17298600
Mo       0.00000000       0.00000000       4.51010101       0.00000000       0.00000000      -0.17298600
2
Properties=species:S:1:pos:R:3:forces:R:3 energy=-9.374543993104128 pbc="F F F"
Mo       0.00000000       0.00000000       0.00000000       0.00000000       0.00000000       0.16322969
Mo       0.00000000       0.00000000       4.56969697       0.00000000       0.00000000      -0.16322969
2
Properties=species:S:1:pos:R:3:forces:R:3 energy=-9.365115763089804 pbc="F F F"
Mo       0.00000000       0.00000000       0.00000000       0.00000000       0.00000000       0.15312313
Mo       0.00000000       0.00000000       4.62929293       0.00000000       0.00000000      -0.15312313
2
Properties=species:S:1:pos:R:3:forces:R:3 energy=-9.356300276183854 pbc="F F F"
Mo       0.00000000       0.00000000       0.00000000       0.00000000       0.00000000       0.14267972
Mo       0.00000000       0.00000000       4.68888889       0.00000000       0.00000000      -0.14267972
2
Properties=species:S:1:pos:R:3:forces:R:3 energy=-9.34811252680745 pbc="F F F"
Mo       0.00000000       0.00000000       0.00000000       0.00000000       0.00000000       0.13205977
Mo       0.00000000       0.00000000       4.74848485       0.00000000       0.00000000      -0.13205977
2
Properties=species:S:1:pos:R:3:forces:R:3 energy=-9.340558470146531 pbc="F F F"
Mo       0.00000000       0.00000000       0.00000000       0.00000000       0.00000000       0.12151565
Mo       0.00000000       0.00000000       4.80808081       0.00000000       0.00000000      -0.12151565
2
Properties=species:S:1:pos:R:3:forces:R:3 energy=-9.333622675070842 pbc="F F F"
Mo       0.00000000       0.00000000       0.00000000       0.00000000       0.00000000       0.11133713
Mo       0.00000000       0.00000000       4.86767677       0.00000000       0.00000000      -0.11133713
2
Properties=species:S:1:pos:R:3:forces:R:3 energy=-9.327275703270509 pbc="F F F"
Mo       0.00000000       0.00000000       0.00000000       0.00000000       0.00000000       0.10181801
Mo       0.00000000       0.00000000       4.92727273       0.00000000       0.00000000      -0.10181801
2
Properties=species:S:1:pos:R:3:forces:R:3 energy=-9.321468371371036 pbc="F F F"
Mo       0.00000000       0.00000000       0.00000000       0.00000000       0.00000000       0.09321011
Mo       0.00000000       0.00000000       4.98686869       0.00000000       0.00000000      -0.09321011
2
Properties=species:S:1:pos:R:3:forces:R:3 energy=-9.316143163346881 pbc="F F F"
Mo       0.00000000       0.00000000       0.00000000       0.00000000       0.00000000       0.08568336
Mo       0.00000000       0.00000000       5.04646465       0.00000000       0.00000000      -0.08568336
2
Properties=species:S:1:pos:R:3:forces:R:3 energy=-9.311234097472923 pbc="F F F"
Mo       0.00000000       0.00000000       0.00000000       0.00000000       0.00000000       0.07928025
Mo       0.00000000       0.00000000       5.10606061       0.00000000       0.00000000      -0.07928025
2
Properties=species:S:1:pos:R:3:forces:R:3 energy=-9.306673531925384 pbc="F F F"
Mo       0.00000000       0.00000000       0.00000000       0.00000000       0.00000000       0.07388466
Mo       0.00000000       0.00000000       5.16565657       0.00000000       0.00000000      -0.07388466
2
Properties=species:S:1:pos:R:3:forces:R:3 energy=-9.30241023707651 pbc="F F F"
Mo       0.00000000       0.00000000       0.00000000       0.00000000       0.00000000       0.06923258
Mo       0.00000000       0.00000000       5.22525253       0.00000000       0.00000000      -0.06923258
2
Properties=species:S:1:pos:R:3:forces:R:3 energy=-9.298415079526606 pbc="F F F"
Mo       0.00000000       0.00000000       0.00000000       0.00000000       0.00000000       0.06495471
Mo       0.00000000       0.00000000       5.28484848       0.00000000       0.00000000      -0.06495471
2
Properties=species:S:1:pos:R:3:forces:R:3 energy=-9.294670699581125 pbc="F F F"
Mo       0.00000000       0.00000000       0.00000000       0.00000000       0.00000000       0.06065499
Mo       0.00000000       0.00000000       5.34444444       0.00000000       0.00000000      -0.06065499
2
Properties=species:S:1:pos:R:3:forces:R:3 energy=-9.291190530884023 pbc="F F F"
Mo       0.00000000       0.00000000       0.00000000       0.00000000       0.00000000       0.05600512
Mo       0.00000000       0.00000000       5.40404040       0.00000000       0.00000000      -0.05600512
2
Properties=species:S:1:pos:R:3:forces:R:3 energy=-9.288004609344611 pbc="F F F"
Mo       0.00000000       0.00000000       0.00000000       0.00000000       0.00000000       0.05082548
Mo       0.00000000       0.00000000       5.46363636       0.00000000       0.00000000      -0.05082548
2
Properties=species:S:1:pos:R:3:forces:R:3 energy=-9.28514435236235 pbc="F F F"
Mo       0.00000000       0.00000000       0.00000000       0.00000000       0.00000000       0.04512779
Mo       0.00000000       0.00000000       5.52323232       0.00000000       0.00000000      -0.04512779
2
Properties=species:S:1:pos:R:3:forces:R:3 energy=-9.282633117118365 pbc="F F F"
Mo       0.00000000       0.00000000       0.00000000       0.00000000       0.00000000       0.03911513
Mo       0.00000000       0.00000000       5.58282828       0.00000000       0.00000000      -0.03911513
2
Properties=species:S:1:pos:R:3:forces:R:3 energy=-9.280480478529533 pbc="F F F"
Mo       0.00000000       0.00000000       0.00000000       0.00000000       0.00000000       0.03313686
Mo       0.00000000       0.00000000       5.64242424       0.00000000       0.00000000      -0.03313686
2
Properties=species:S:1:pos:R:3:forces:R:3 energy=-9.278673772892532 pbc="F F F"
Mo       0.00000000       0.00000000       0.00000000       0.00000000       0.00000000       0.02760498
Mo       0.00000000       0.00000000       5.70202020       0.00000000       0.00000000      -0.02760498
2
Properties=species:S:1:pos:R:3:forces:R:3 energy=-9.277174327536077 pbc="F F F"
Mo       0.00000000       0.00000000       0.00000000       0.00000000       0.00000000       0.02290390
Mo       0.00000000       0.00000000       5.76161616       0.00000000       0.00000000      -0.02290390
2
Properties=species:S:1:pos:R:3:forces:R:3 energy=-9.275923189202471 pbc="F F F"
Mo       0.00000000       0.00000000       0.00000000       0.00000000       0.00000000       0.01928562
Mo       0.00000000       0.00000000       5.82121212       0.00000000       0.00000000      -0.01928562
2
Properties=species:S:1:pos:R:3:forces:R:3 energy=-9.274853632687485 pbc="F F F"
Mo       0.00000000       0.00000000       0.00000000       0.00000000       0.00000000       0.01681247
Mo       0.00000000       0.00000000       5.88080808       0.00000000       0.00000000      -0.01681247
2
Properties=species:S:1:pos:R:3:forces:R:3 energy=-9.273900700751351 pbc="F F F"
Mo       0.00000000       0.00000000       0.00000000       0.00000000       0.00000000       0.01530365
Mo       0.00000000       0.00000000       5.94040404       0.00000000       0.00000000      -0.01530365
2
Properties=species:S:1:pos:R:3:forces:R:3 energy=-9.273016521512533 pbc="F F F"
Mo       0.00000000       0.00000000       0.00000000       0.00000000       0.00000000       0.01437535
Mo       0.00000000       0.00000000       6.00000000       0.00000000       0.00000000      -0.01437535
