2
Properties=species:S:1:pos:R:3:forces:R:3 energy=132012855.93480062 pbc="F F F"
Mo       0.00000000       0.00000000       0.00000000       0.00000000       0.00000000 -1692545408.00000000
Mo       0.00000000       0.00000000       0.18000000       0.00000000       0.00000000 1692545408.00000000
2
Properties=species:S:1:pos:R:3:forces:R:3 energy=52619959.934800625 pbc="F F F"
Mo       0.00000000       0.00000000       0.00000000       0.00000000       0.00000000 -884360448.00000000
Mo       0.00000000       0.00000000       0.23878788       0.00000000       0.00000000 884360448.00000000
2
Properties=species:S:1:pos:R:3:forces:R:3 energy=16258959.934800632 pbc="F F F"
Mo       0.00000000       0.00000000       0.00000000       0.00000000       0.00000000 -376180992.00000000
Mo       0.00000000       0.00000000       0.29757576       0.00000000       0.00000000 376180992.00000000
2
Properties=species:S:1:pos:R:3:forces:R:3 energy=3756902.6848006323 pbc="F F F"
Mo       0.00000000       0.00000000       0.00000000       0.00000000       0.00000000 -93529776.00000000
Mo       0.00000000       0.00000000       0.35636364       0.00000000       0.00000000 93529776.00000000
2
Properties=species:S:1:pos:R:3:forces:R:3 energy=1338894.1848006449 pbc="F F F"
Mo       0.00000000       0.00000000       0.00000000       0.00000000       0.00000000 -1627806.25000000
Mo       0.00000000       0.00000000       0.41515152       0.00000000       0.00000000 1627806.25000000
2
Properties=species:S:1:pos:R:3:forces:R:3 energy=677034.8098006574 pbc="F F F"
Mo       0.00000000       0.00000000       0.00000000       0.00000000       0.00000000 -17064496.00000000
Mo       0.00000000       0.00000000       0.47393939       0.00000000       0.00000000 17064496.00000000
2
Properties=species:S:1:pos:R:3:forces:R:3 energy=92397.24730068284 pbc="F F F"
Mo       0.00000000       0.00000000       0.00000000       0.00000000       0.00000000 -4404426.50000000
Mo       0.00000000       0.00000000       0.53272727       0.00000000       0.00000000 4404426.50000000
2
Properties=species:S:1:pos:R:3:forces:R:3 energy=-475.5491164964653 pbc="F F F"
Mo       0.00000000       0.00000000       0.00000000       0.00000000       0.00000000 -373522.59375000
Mo       0.00000000       0.00000000       0.59151515       0.00000000       0.00000000  373522.59375000
2
Properties=species:S:1:pos:R:3:forces:R:3 energy=-11258.112074177774 pbc="F F F"
Mo       0.00000000       0.00000000       0.00000000       0.00000000       0.00000000  -21715.50781250
Mo       0.00000000       0.00000000       0.65030303       0.00000000       0.00000000   21715.50781250
2
Properties=species:S:1:pos:R:3:forces:R:3 energy=-9590.37672247589 pbc="F F F"
Mo       0.00000000       0.00000000       0.00000000       0.00000000       0.00000000  157126.31250000
Mo       0.00000000       0.00000000       0.70909091       0.00000000       0.00000000 -157126.31250000
2
Properties=species:S:1:pos:R:3:forces:R:3 energy=-3357.942396101274 pbc="F F F"
Mo       0.00000000       0.00000000       0.00000000       0.00000000       0.00000000   66453.81250000
Mo       0.00000000       0.00000000       0.76787879       0.00000000       0.00000000  -66453.81250000
2
Properties=species:S:1:pos:R:3:forces:R:3 energy=-990.4059577962105 pbc="F F F"
Mo       0.00000000       0.00000000       0.00000000       0.00000000       0.00000000   20396.23632812
Mo       0.00000000       0.00000000       0.82666667       0.00000000       0.00000000  -20396.23632812
2
Properties=species:S:1:pos:R:3:forces:R:3 energy=-272.46168246304296 pbc="F F F"
Mo       0.00000000       0.00000000       0.00000000       0.00000000       0.00000000    8995.06250000
Mo       0.00000000       0.00000000       0.88545455       0.00000000       0.00000000   -8995.06250000
2
Properties=species:S:1:pos:R:3:forces:R:3 energy=230.41368436878767 pbc="F F F"
Mo       0.00000000       0.00000000       0.00000000       0.00000000       0.00000000    6377.64111328
Mo       0.00000000       0.00000000       0.94424242       0.00000000       0.00000000   -6377.64111328
2
Properties=species:S:1:pos:R:3:forces:R:3 energy=412.0917552861234 pbc="F F F"
Mo       0.00000000       0.00000000       0.00000000       0.00000000       0.00000000     538.00695801
Mo       0.00000000       0.00000000       1.00303030       0.00000000       0.00000000    -538.00695801
2
Properties=species:S:1:pos:R:3:forces:R:3 energy=357.5056358210706 pbc="F F F"
Mo       0.00000000       0.00000000       0.00000000       0.00000000       0.00000000   -2031.96386719
Mo       0.00000000       0.00000000       1.06181818       0.00000000       0.00000000    2031.96386719
2
Properties=species:S:1:pos:R:3:forces:R:3 energy=233.22278515610236 pbc="F F F"
Mo       0.00000000       0.00000000       0.00000000       0.00000000       0.00000000   -2306.74658203
Mo       0.00000000       0.00000000       1.12060606       0.00000000       0.00000000    2306.74658203
2
Properties=species:S:1:pos:R:3:forces:R:3 energy=120.15706754100249 pbc="F F F"
Mo       0.00000000       0.00000000       0.00000000       0.00000000       0.00000000   -1415.12231445
Mo       0.00000000       0.00000000       1.17939394       0.00000000       0.00000000    1415.12231445
2
Properties=species:S:1:pos:R:3:forces:R:3 energy=62.23696513280533 pbc="F F F"
Mo       0.00000000       0.00000000       0.00000000       0.00000000       0.00000000    -715.09094238
Mo       0.00000000       0.00000000       1.23818182       0.00000000       0.00000000     715.09094238
2
Properties=species:S:1:pos:R:3:forces:R:3 energy=34.555037872676884 pbc="F F F"
Mo       0.00000000       0.00000000       0.00000000       0.00000000       0.00000000    -298.08340454
Mo       0.00000000       0.00000000       1.29696970       0.00000000       0.00000000     298.08340454
2
Properties=species:S:1:pos:R:3:forces:R:3 energy=21.482774496510913 pbc="F F F"
Mo       0.00000000       0.00000000       0.00000000       0.00000000       0.00000000    -174.48504639
Mo       0.00000000       0.00000000       1.35575758       0.00000000       0.00000000     174.48504639
2
Properties=species:S:1:pos:R:3:forces:R:3 energy=11.380662165958375 pbc="F F F"
Mo       0.00000000       0.00000000       0.00000000       0.00000000       0.00000000    -164.76837158
Mo       0.00000000       0.00000000       1.41454545       0.00000000       0.00000000     164.76837158
2
Properties=species:S:1:pos:R:3:forces:R:3 energy=3.694091791389482 pbc="F F F"
Mo       0.00000000       0.00000000       0.00000000       0.00000000       0.00000000     -93.47017670
Mo       0.00000000       0.00000000       1.47333333       0.00000000       0.00000000      93.47017670
2
Properties=species:S:1:pos:R:3:forces:R:3 energy=-0.580472610806517 pbc="F F F"
Mo       0.00000000       0.00000000       0.00000000       0.00000000       0.00000000     -59.04237366
Mo       0.00000000       0.00000000       1.53212121       0.00000000       0.00000000      59.04237366
2
Properties=species:S:1:pos:R:3:forces:R:3 energy=-3.538398193501899 pbc="F F F"
Mo       0.00000000       0.00000000       0.00000000       0.00000000       0.00000000     -43.63394547
Mo       0.00000000       0.00000000       1.59090909       0.00000000       0.00000000      43.63394547
2
Properties=species:S:1:pos:R:3:forces:R:3 energy=-5.883506845531828 pbc="F F F"
Mo       0.00000000       0.00000000       0.00000000       0.00000000       0.00000000     -36.59095383
Mo       0.00000000       0.00000000       1.64969697       0.00000000       0.00000000      36.59095383
2
Properties=species:S:1:pos:R:3:forces:R:3 energy=-7.875661004174546 pbc="F F F"
Mo       0.00000000       0.00000000       0.00000000       0.00000000       0.00000000     -30.95033073
Mo       0.00000000       0.00000000       1.70848485       0.00000000       0.00000000      30.95033073
2
Properties=species:S:1:pos:R:3:forces:R:3 energy=-9.471011335911216 pbc="F F F"
Mo       0.00000000       0.00000000       0.00000000       0.00000000       0.00000000     -23.28365898
Mo       0.00000000       0.00000000       1.76727273       0.00000000       0.00000000      23.28365898
2
Properties=species:S:1:pos:R:3:forces:R:3 energy=-10.658509181661481 pbc="F F F"
Mo       0.00000000       0.00000000       0.00000000       0.00000000       0.00000000     -17.32962036
Mo       0.00000000       0.00000000       1.82606061       0.00000000       0.00000000      17.32962036
2
Properties=species:S:1:pos:R:3:forces:R:3 energy=-11.477180389984438 pbc="F F F"
Mo       0.00000000       0.00000000       0.00000000       0.00000000       0.00000000     -10.89274788
Mo       0.00000000       0.00000000       1.88484848       0.00000000       0.00000000      10.89274788
2
Properties=species:S:1:pos:R:3:forces:R:3 energy=-11.974255383624824 pbc="F F F"
Mo       0.00000000       0.00000000       0.00000000       0.00000000       0.00000000      -6.04587793
Mo       0.00000000       0.00000000       1.94363636       0.00000000       0.00000000       6.04587793
2
Properties=species:S:1:pos:R:3:forces:R:3 energy=-12.203309671994065 pbc="F F F"
Mo       0.00000000       0.00000000       0.00000000       0.00000000       0.00000000      -2.01277471
Mo       0.00000000       0.00000000       2.00242424       0.00000000       0.00000000       2.01277471
2
Properties=species:S:1:pos:R:3:forces:R:3 energy=-12.243902891710608 pbc="F F F"
Mo       0.00000000       0.00000000       0.00000000       0.00000000       0.00000000       0.43235436
Mo       0.00000000       0.00000000       2.06121212       0.00000000       0.00000000      -0.43235436
2
Properties=species:S:1:pos:R:3:forces:R:3 energy=-12.165576226001068 pbc="F F F"
Mo       0.00000000       0.00000000       0.00000000       0.00000000       0.00000000       2.14661264
Mo       0.00000000       0.00000000       2.12000000       0.00000000       0.00000000      -2.14661264
2
Properties=species:S:1:pos:R:3:forces:R:3 energy=-12.003415859497876 pbc="F F F"
Mo       0.00000000       0.00000000       0.00000000       0.00000000       0.00000000       3.26183414
Mo       0.00000000       0.00000000       2.17878788       0.00000000       0.00000000      -3.26183414
2
Properties=species:S:1:pos:R:3:forces:R:3 energy=-11.792926975327813 pbc="F F F"
Mo       0.00000000       0.00000000       0.00000000       0.00000000       0.00000000       3.82736754
Mo       0.00000000       0.00000000       2.23757576       0.00000000       0.00000000      -3.82736754
2
Properties=species:S:1:pos:R:3:forces:R:3 energy=-11.560998552611682 pbc="F F F"
Mo       0.00000000       0.00000000       0.00000000       0.00000000       0.00000000       4.00188923
Mo       0.00000000       0.00000000       2.29636364       0.00000000       0.00000000      -4.00188923
2
Properties=species:S:1:pos:R:3:forces:R:3 energy=-11.328070487994506 pbc="F F F"
Mo       0.00000000       0.00000000       0.00000000       0.00000000       0.00000000       3.89078498
Mo       0.00000000       0.00000000       2.35515152       0.00000000       0.00000000      -3.89078498
2
Properties=species:S:1:pos:R:3:forces:R:3 energy=-11.106108919409508 pbc="F F F"
Mo       0.00000000       0.00000000       0.00000000       0.00000000       0.00000000       3.64510918
Mo       0.00000000       0.00000000       2.41393939       0.00000000       0.00000000      -3.64510918
2
Properties=species:S:1:pos:R:3:forces:R:3 energy=-10.901263741955532 pbc="F F F"
Mo       0.00000000       0.00000000       0.00000000       0.00000000       0.00000000       3.30414319
Mo       0.00000000       0.00000000       2.47272727       0.00000000       0.00000000      -3.30414319
2
Properties=species:S:1:pos:R:3:forces:R:3 energy=-10.719783349061121 pbc="F F F"
Mo       0.00000000       0.00000000       0.00000000       0.00000000       0.00000000       2.86100268
Mo       0.00000000       0.00000000       2.53151515       0.00000000       0.00000000      -2.86100268
2
Properties=species:S:1:pos:R:3:forces:R:3 energy=-10.564728970079619 pbc="F F F"
Mo       0.00000000       0.00000000       0.00000000       0.00000000       0.00000000       2.42076755
Mo       0.00000000       0.00000000       2.59030303       0.00000000       0.00000000      -2.42076755
2
Properties=species:S:1:pos:R:3:forces:R:3 energy=-10.43402361941344 pbc="F F F"
Mo       0.00000000       0.00000000       0.00000000       0.00000000       0.00000000       2.03881049
Mo       0.00000000       0.00000000       2.64909091       0.00000000       0.00000000      -2.03881049
2
Properties=species:S:1:pos:R:3:forces:R:3 energy=-10.323406642263322 pbc="F F F"
Mo       0.00000000       0.00000000       0.00000000       0.00000000       0.00000000       1.73613560
Mo       0.00000000       0.00000000       2.70787879       0.00000000       0.00000000      -1.73613560
2
Properties=species:S:1:pos:R:3:forces:R:3 energy=-10.228947601724892 pbc="F F F"
Mo       0.00000000       0.00000000       0.00000000       0.00000000       0.00000000       1.48282945
Mo       0.00000000       0.00000000       2.76666667       0.00000000       0.00000000      -1.48282945
2
Properties=species:S:1:pos:R:3:forces:R:3 energy=-10.148497332907342 pbc="F F F"
Mo       0.00000000       0.00000000       0.00000000       0.00000000       0.00000000       1.25911021
Mo       0.00000000       0.00000000       2.82545455       0.00000000       0.00000000      -1.25911021
2
Properties=species:S:1:pos:R:3:forces:R:3 energy=-10.080293227312426 pbc="F F F"
Mo       0.00000000       0.00000000       0.00000000       0.00000000       0.00000000       1.06686425
Mo       0.00000000       0.00000000       2.88424242       0.00000000       0.00000000      -1.06686425
2
Properties=species:S:1:pos:R:3:forces:R:3 energy=-10.022308961700425 pbc="F F F"
Mo       0.00000000       0.00000000       0.00000000       0.00000000       0.00000000       0.91301227
Mo       0.00000000       0.00000000       2.94303030       0.00000000       0.00000000      -0.91301227
2
Properties=species:S:1:pos:R:3:forces:R:3 energy=-9.972021374830879 pbc="F F F"
Mo       0.00000000       0.00000000       0.00000000       0.00000000       0.00000000       0.80568588
Mo       0.00000000       0.00000000       3.00181818       0.00000000       0.00000000      -0.80568588
2
Properties=species:S:1:pos:R:3:forces:R:3 energy=-9.926800405705222 pbc="F F F"
Mo       0.00000000       0.00000000       0.00000000       0.00000000       0.00000000       0.73741257
Mo       0.00000000       0.00000000       3.06060606       0.00000000       0.00000000      -0.73741257
2
Properties=species:S:1:pos:R:3:forces:R:3 energy=-9.885027589580785 pbc="F F F"
Mo       0.00000000       0.00000000       0.00000000       0.00000000       0.00000000       0.68448299
Mo       0.00000000       0.00000000       3.11939394       0.00000000       0.00000000      -0.68448299
2
Properties=species:S:1:pos:R:3:forces:R:3 energy=-9.84631170705875 pbc="F F F"
Mo       0.00000000       0.00000000       0.00000000       0.00000000       0.00000000       0.63277525
Mo       0.00000000       0.00000000       3.17818182       0.00000000       0.00000000      -0.63277525
2
Properties=species:S:1:pos:R:3:forces:R:3 energy=-9.810551507827117 pbc="F F F"
Mo       0.00000000       0.00000000       0.00000000       0.00000000       0.00000000       0.58496124
Mo       0.00000000       0.00000000       3.23696970       0.00000000       0.00000000      -0.58496124
2
Properties=species:S:1:pos:R:3:forces:R:3 energy=-9.77737191357357 pbc="F F F"
Mo       0.00000000       0.00000000       0.00000000       0.00000000       0.00000000       0.54514855
Mo       0.00000000       0.00000000       3.29575758       0.00000000       0.00000000      -0.54514855
2
Properties=species:S:1:pos:R:3:forces:R:3 energy=-9.746323415854043 pbc="F F F"
Mo       0.00000000       0.00000000       0.00000000       0.00000000       0.00000000       0.51193571
Mo       0.00000000       0.00000000       3.35454545       0.00000000       0.00000000      -0.51193571
2
Properties=species:S:1:pos:R:3:forces:R:3 energy=-9.717126681660675 pbc="F F F"
Mo       0.00000000       0.00000000       0.00000000       0.00000000       0.00000000       0.48169619
Mo       0.00000000       0.00000000       3.41333333       0.00000000       0.00000000      -0.48169619
2
Properties=species:S:1:pos:R:3:forces:R:3 energy=-9.689667639591738 pbc="F F F"
Mo       0.00000000       0.00000000       0.00000000       0.00000000       0.00000000       0.45268640
Mo       0.00000000       0.00000000       3.47212121       0.00000000       0.00000000      -0.45268640
2
Properties=species:S:1:pos:R:3:forces:R:3 energy=-9.663857182791252 pbc="F F F"
Mo       0.00000000       0.00000000       0.00000000       0.00000000       0.00000000       0.42586917
Mo       0.00000000       0.00000000       3.53090909       0.00000000       0.00000000      -0.42586917
2
Properties=species:S:1:pos:R:3:forces:R:3 energy=-9.639521359387007 pbc="F F F"
Mo       0.00000000       0.00000000       0.00000000       0.00000000       0.00000000       0.40276375
Mo       0.00000000       0.00000000       3.58969697       0.00000000       0.00000000      -0.40276375
2
Properties=species:S:1:pos:R:3:forces:R:3 energy=-9.61642492892476 pbc="F F F"
Mo       0.00000000       0.00000000       0.00000000       0.00000000       0.00000000       0.38352835
Mo       0.00000000       0.00000000       3.64848485       0.00000000       0.00000000      -0.38352835
2
Properties=species:S:1:pos:R:3:forces:R:3 energy=-9.594374045420183 pbc="F F F"
Mo       0.00000000       0.00000000       0.00000000       0.00000000       0.00000000       0.36698681
Mo       0.00000000       0.00000000       3.70727273       0.00000000       0.00000000      -0.36698681
2
Properties=species:S:1:pos:R:3:forces:R:3 energy=-9.573253323944307 pbc="F F F"
Mo       0.00000000       0.00000000       0.00000000       0.00000000       0.00000000       0.35163835
Mo       0.00000000       0.00000000       3.76606061       0.00000000       0.00000000      -0.35163835
2
Properties=species:S:1:pos:R:3:forces:R:3 energy=-9.553029398567345 pbc="F F F"
Mo       0.00000000       0.00000000       0.00000000       0.00000000       0.00000000       0.33638084
Mo       0.00000000       0.00000000       3.82484848       0.00000000       0.00000000      -0.33638084
2
Properties=species:S:1:pos:R:3:forces:R:3 energy=-9.53371413153362 pbc="F F F"
Mo       0.00000000       0.00000000       0.00000000       0.00000000       0.00000000       0.32064188
Mo       0.00000000       0.00000000       3.88363636       0.00000000       0.00000000      -0.32064188
2
Properties=species:S:1:pos:R:3:forces:R:3 energy=-9.515343223617688 pbc="F F F"
Mo       0.00000000       0.00000000       0.00000000       0.00000000       0.00000000       0.30423707
Mo       0.00000000       0.00000000       3.94242424       0.00000000       0.00000000      -0.30423707
2
Properties=species:S:1:pos:R:3:forces:R:3 energy=-9.497954038860586 pbc="F F F"
Mo       0.00000000       0.00000000       0.00000000       0.00000000       0.00000000       0.28724727
Mo       0.00000000       0.00000000       4.00121212       0.00000000       0.00000000      -0.28724727
2
Properties=species:S:1:pos:R:3:forces:R:3 energy=-9.481575202851367 pbc="F F F"
Mo       0.00000000       0.00000000       0.00000000       0.00000000       0.00000000       0.27000836
Mo       0.00000000       0.00000000       4.06000000       0.00000000       0.00000000      -0.27000836
2
Properties=species:S:1:pos:R:3:forces:R:3 energy=-9.466202022606783 pbc="F F F"
Mo       0.00000000       0.00000000       0.00000000       0.00000000       0.00000000       0.25309408
Mo       0.00000000       0.00000000       4.11878788       0.00000000       0.00000000      -0.25309408
2
Properties=species:S:1:pos:R:3:forces:R:3 energy=-9.451797117127736 pbc="F F F"
Mo       0.00000000       0.00000000       0.00000000       0.00000000       0.00000000       0.23716611
Mo       0.00000000       0.00000000       4.17757576       0.00000000       0.00000000      -0.23716611
2
Properties=species:S:1:pos:R:3:forces:R:3 energy=-9.438286773764414 pbc="F F F"
Mo       0.00000000       0.00000000       0.00000000       0.00000000       0.00000000       0.22274616
Mo       0.00000000       0.00000000       4.23636364       0.00000000       0.00000000      -0.22274616
2
Properties=species:S:1:pos:R:3:forces:R:3 energy=-9.42557320659823 pbc="F F F"
Mo       0.00000000       0.00000000       0.00000000       0.00000000       0.00000000       0.21002892
Mo       0.00000000       0.00000000       4.29515152       0.00000000       0.00000000      -0.21002892
2
Properties=species:S:1:pos:R:3:forces:R:3 energy=-9.413563166671311 pbc="F F F"
Mo       0.00000000       0.00000000       0.00000000       0.00000000       0.00000000       0.19884333
Mo       0.00000000       0.00000000       4.35393939       0.00000000       0.00000000      -0.19884333
2
Properties=species:S:1:pos:R:3:forces:R:3 energy=-9.402174364280942 pbc="F F F"
Mo       0.00000000       0.00000000       0.00000000       0.00000000       0.00000000       0.18874556
Mo       0.00000000       0.00000000       4.41272727       0.00000000       0.00000000      -0.18874556
2
Properties=species:S:1:pos:R:3:forces:R:3 energy=-9.391359336180054 pbc="F F F"
Mo       0.00000000       0.00000000       0.00000000       0.00000000       0.00000000       0.17919444
Mo       0.00000000       0.00000000       4.47151515       0.00000000       0.00000000      -0.17919444
2
Properties=species:S:1:pos:R:3:forces:R:3 energy=-9.38110235647108 pbc="F F F"
Mo       0.00000000       0.00000000       0.00000000       0.00000000       0.00000000       0.16971128
Mo       0.00000000       0.00000000       4.53030303       0.00000000       0.00000000      -0.16971128
2
Properties=species:S:1:pos:R:3:forces:R:3 energy=-9.371409801660302 pbc="F F F"
Mo       0.00000000       0.00000000       0.00000000       0.00000000       0.00000000       0.15998223
Mo       0.00000000       0.00000000       4.58909091       0.00000000       0.00000000      -0.15998223
2
Properties=species:S:1:pos:R:3:forces:R:3 energy=-9.3623004713627 pbc="F F F"
Mo       0.00000000       0.00000000       0.00000000       0.00000000       0.00000000       0.14989766
Mo       0.00000000       0.00000000       4.64787879       0.00000000       0.00000000      -0.14989766
2
Properties=species:S:1:pos:R:3:forces:R:3 energy=-9.353791067775282 pbc="F F F"
Mo       0.00000000       0.00000000       0.00000000       0.00000000       0.00000000       0.13952029
Mo       0.00000000       0.00000000       4.70666667       0.00000000       0.00000000      -0.13952029
2
Properties=species:S:1:pos:R:3:forces:R:3 energy=-9.345898052340578 pbc="F F F"
Mo       0.00000000       0.00000000       0.00000000       0.00000000       0.00000000       0.12903741
Mo       0.00000000       0.00000000       4.76545455       0.00000000       0.00000000      -0.12903741
2
Properties=species:S:1:pos:R:3:forces:R:3 energy=-9.338616503352746 pbc="F F F"
Mo       0.00000000       0.00000000       0.00000000       0.00000000       0.00000000       0.11870594
Mo       0.00000000       0.00000000       4.82424242       0.00000000       0.00000000      -0.11870594
2
Properties=species:S:1:pos:R:3:forces:R:3 energy=-9.331933381866797 pbc="F F F"
Mo       0.00000000       0.00000000       0.00000000       0.00000000       0.00000000       0.10881137
Mo       0.00000000       0.00000000       4.88303030       0.00000000       0.00000000      -0.10881137
2
Properties=species:S:1:pos:R:3:forces:R:3 energy=-9.325809259831132 pbc="F F F"
Mo       0.00000000       0.00000000       0.00000000       0.00000000       0.00000000       0.09962439
Mo       0.00000000       0.00000000       4.94181818       0.00000000       0.00000000      -0.09962439
2
Properties=species:S:1:pos:R:3:forces:R:3 energy=-9.320201195599832 pbc="F F F"
Mo       0.00000000       0.00000000       0.00000000       0.00000000       0.00000000       0.09137499
Mo       0.00000000       0.00000000       5.00060606       0.00000000       0.00000000      -0.09137499
2
Properties=species:S:1:pos:R:3:forces:R:3 energy=-9.315044617288486 pbc="F F F"
Mo       0.00000000       0.00000000       0.00000000       0.00000000       0.00000000       0.08420024
Mo       0.00000000       0.00000000       5.05939394       0.00000000       0.00000000      -0.08420024
2
Properties=species:S:1:pos:R:3:forces:R:3 energy=-9.310278945267829 pbc="F F F"
Mo       0.00000000       0.00000000       0.00000000       0.00000000       0.00000000       0.07810729
Mo       0.00000000       0.00000000       5.11818182       0.00000000       0.00000000      -0.07810729
2
Properties=species:S:1:pos:R:3:forces:R:3 energy=-9.305842864973863 pbc="F F F"
Mo       0.00000000       0.00000000       0.00000000       0.00000000       0.00000000       0.07295425
Mo       0.00000000       0.00000000       5.17696970       0.00000000       0.00000000      -0.07295425
2
Properties=species:S:1:pos:R:3:forces:R:3 energy=-9.301689668060293 pbc="F F F"
Mo       0.00000000       0.00000000       0.00000000       0.00000000       0.00000000       0.06846297
Mo       0.00000000       0.00000000       5.23575758       0.00000000       0.00000000      -0.06846297
2
Properties=species:S:1:pos:R:3:forces:R:3 energy=-9.29778808252777 pbc="F F F"
Mo       0.00000000       0.00000000       0.00000000       0.00000000       0.00000000       0.06426544
Mo       0.00000000       0.00000000       5.29454545       0.00000000       0.00000000      -0.06426544
2
Properties=species:S:1:pos:R:3:forces:R:3 energy=-9.294133932227606 pbc="F F F"
Mo       0.00000000       0.00000000       0.00000000       0.00000000       0.00000000       0.05998972
Mo       0.00000000       0.00000000       5.35333333       0.00000000       0.00000000      -0.05998972
2
Properties=species:S:1:pos:R:3:forces:R:3 energy=-9.290742437775146 pbc="F F F"
Mo       0.00000000       0.00000000       0.00000000       0.00000000       0.00000000       0.05533639
Mo       0.00000000       0.00000000       5.41212121       0.00000000       0.00000000      -0.05533639
2
Properties=species:S:1:pos:R:3:forces:R:3 energy=-9.28763780849567 pbc="F F F"
Mo       0.00000000       0.00000000       0.00000000       0.00000000       0.00000000       0.05015519
Mo       0.00000000       0.00000000       5.47090909       0.00000000       0.00000000      -0.05015519
2
Properties=species:S:1:pos:R:3:forces:R:3 energy=-9.284855213129465 pbc="F F F"
Mo       0.00000000       0.00000000       0.00000000       0.00000000       0.00000000       0.04448526
Mo       0.00000000       0.00000000       5.52969697       0.00000000       0.00000000      -0.04448526
2
Properties=species:S:1:pos:R:3:forces:R:3 energy=-9.282412261469178 pbc="F F F"
Mo       0.00000000       0.00000000       0.00000000       0.00000000       0.00000000       0.03853966
Mo       0.00000000       0.00000000       5.58848485       0.00000000       0.00000000      -0.03853966
2
Properties=species:S:1:pos:R:3:forces:R:3 energy=-9.280322358968064 pbc="F F F"
Mo       0.00000000       0.00000000       0.00000000       0.00000000       0.00000000       0.03266529
Mo       0.00000000       0.00000000       5.64727273       0.00000000       0.00000000      -0.03266529
2
Properties=species:S:1:pos:R:3:forces:R:3 energy=-9.278564265189598 pbc="F F F"
Mo       0.00000000       0.00000000       0.00000000       0.00000000       0.00000000       0.02725694
Mo       0.00000000       0.00000000       5.70606061       0.00000000       0.00000000      -0.02725694
2
Properties=species:S:1:pos:R:3:forces:R:3 energy=-9.277100295982853 pbc="F F F"
Mo       0.00000000       0.00000000       0.00000000       0.00000000       0.00000000       0.02267627
Mo       0.00000000       0.00000000       5.76484848       0.00000000       0.00000000      -0.02267627
2
Properties=species:S:1:pos:R:3:forces:R:3 energy=-9.275876355160737 pbc="F F F"
Mo       0.00000000       0.00000000       0.00000000       0.00000000       0.00000000       0.01916241
Mo       0.00000000       0.00000000       5.82363636       0.00000000       0.00000000      -0.01916241
2
Properties=species:S:1:pos:R:3:forces:R:3 energy=-9.274825757116796 pbc="F F F"
Mo       0.00000000       0.00000000       0.00000000       0.00000000       0.00000000       0.01675901
Mo       0.00000000       0.00000000       5.88242424       0.00000000       0.00000000      -0.01675901
2
Properties=species:S:1:pos:R:3:forces:R:3 energy=-9.27388841276924 pbc="F F F"
Mo       0.00000000       0.00000000       0.00000000       0.00000000       0.00000000       0.01528822
Mo       0.00000000       0.00000000       5.94121212       0.00000000       0.00000000      -0.01528822
2
Properties=species:S:1:pos:R:3:forces:R:3 energy=-9.27301747518685 pbc="F F F"
Mo       0.00000000       0.00000000       0.00000000       0.00000000       0.00000000       0.01437535
Mo       0.00000000       0.00000000       6.00000000       0.00000000       0.00000000      -0.01437535
