2
Properties=species:S:1:pos:R:3:forces:R:3 energy=-23882.33999660031 pbc="F F F"
Na       0.00000000       0.00000000       0.00000000       0.00000000       0.00000000  212147.43750000
Na       0.00000000       0.00000000       0.18000000       0.00000000       0.00000000 -212147.43750000
2
Properties=species:S:1:pos:R:3:forces:R:3 energy=-12872.880035662809 pbc="F F F"
Na       0.00000000       0.00000000       0.00000000       0.00000000       0.00000000  156830.09375000
Na       0.00000000       0.00000000       0.23878788       0.00000000       0.00000000 -156830.09375000
2
Properties=species:S:1:pos:R:3:forces:R:3 energy=-5679.984039569058 pbc="F F F"
Na       0.00000000       0.00000000       0.00000000       0.00000000       0.00000000   88590.60937500
Na       0.00000000       0.00000000       0.29757576       0.00000000       0.00000000  -88590.60937500
2
Properties=species:S:1:pos:R:3:forces:R:3 energy=-2097.543609881558 pbc="F F F"
Na       0.00000000       0.00000000       0.00000000       0.00000000       0.00000000   37485.33203125
Na       0.00000000       0.00000000       0.35636364       0.00000000       0.00000000  -37485.33203125
2
Properties=species:S:1:pos:R:3:forces:R:3 energy=-716.4395449369841 pbc="F F F"
Na       0.00000000       0.00000000       0.00000000       0.00000000       0.00000000   13309.10742188
Na       0.00000000       0.00000000       0.41515152       0.00000000       0.00000000  -13309.10742188
2
Properties=species:S:1:pos:R:3:forces:R:3 energy=-234.72102381723616 pbc="F F F"
Na       0.00000000       0.00000000       0.00000000       0.00000000       0.00000000    4226.08837891
Na       0.00000000       0.00000000       0.47393939       0.00000000       0.00000000   -4226.08837891
2
Properties=species:S:1:pos:R:3:forces:R:3 energy=-73.51004816234395 pbc="F F F"
Na       0.00000000       0.00000000       0.00000000       0.00000000       0.00000000    1611.98107910
Na       0.00000000       0.00000000       0.53272727       0.00000000       0.00000000   -1611.98107910
2
Properties=species:S:1:pos:R:3:forces:R:3 energy=-14.228193521739971 pbc="F F F"
Na       0.00000000       0.00000000       0.00000000       0.00000000       0.00000000     543.23254395
Na       0.00000000       0.00000000       0.59151515       0.00000000       0.00000000    -543.23254395
2
Properties=species:S:1:pos:R:3:forces:R:3 energy=5.2286584549115664 pbc="F F F"
Na       0.00000000       0.00000000       0.00000000       0.00000000       0.00000000     147.60935974
Na       0.00000000       0.00000000       0.65030303       0.00000000       0.00000000    -147.60935974
2
Properties=species:S:1:pos:R:3:forces:R:3 energy=8.557904053911566 pbc="F F F"
Na       0.00000000       0.00000000       0.00000000       0.00000000       0.00000000      23.06552315
Na       0.00000000       0.00000000       0.70909091       0.00000000       0.00000000     -23.06552315
2
Properties=species:S:1:pos:R:3:forces:R:3 energy=9.426709029901701 pbc="F F F"
Na       0.00000000       0.00000000       0.00000000       0.00000000       0.00000000      16.22809219
Na       0.00000000       0.00000000       0.76787879       0.00000000       0.00000000     -16.22809219
2
Properties=species:S:1:pos:R:3:forces:R:3 energy=10.632516782278017 pbc="F F F"
Na       0.00000000       0.00000000       0.00000000       0.00000000       0.00000000      20.53131866
Na       0.00000000       0.00000000       0.82666667       0.00000000       0.00000000     -20.53131866
2
Properties=species:S:1:pos:R:3:forces:R:3 energy=11.397460953850768 pbc="F F F"
Na       0.00000000       0.00000000       0.00000000       0.00000000       0.00000000       6.32847118
Na       0.00000000       0.00000000       0.88545455       0.00000000       0.00000000      -6.32847118
2
Properties=species:S:1:pos:R:3:forces:R:3 energy=11.477924497907036 pbc="F F F"
Na       0.00000000       0.00000000       0.00000000       0.00000000       0.00000000      -1.83747649
Na       0.00000000       0.00000000       0.94424242       0.00000000       0.00000000       1.83747649
2
Properties=species:S:1:pos:R:3:forces:R:3 energy=11.223772385251 pbc="F F F"
Na       0.00000000       0.00000000       0.00000000       0.00000000       0.00000000      -6.54157972
Na       0.00000000       0.00000000       1.00303030       0.00000000       0.00000000       6.54157972
2
Properties=species:S:1:pos:R:3:forces:R:3 energy=10.762938130751209 pbc="F F F"
Na       0.00000000       0.00000000       0.00000000       0.00000000       0.00000000     -10.02919674
Na       0.00000000       0.00000000       1.06181818       0.00000000       0.00000000      10.02919674
2
Properties=species:S:1:pos:R:3:forces:R:3 energy=9.966378174313038 pbc="F F F"
Na       0.00000000       0.00000000       0.00000000       0.00000000       0.00000000     -15.74199104
Na       0.00000000       0.00000000       1.12060606       0.00000000       0.00000000      15.74199104
2
Properties=species:S:1:pos:R:3:forces:R:3 energy=8.886036313935117 pbc="F F F"
Na       0.00000000       0.00000000       0.00000000       0.00000000       0.00000000     -20.32723236
Na       0.00000000       0.00000000       1.17939394       0.00000000       0.00000000      20.32723236
2
Properties=species:S:1:pos:R:3:forces:R:3 energy=7.830189706670887 pbc="F F F"
Na       0.00000000       0.00000000       0.00000000       0.00000000       0.00000000     -13.94492531
Na       0.00000000       0.00000000       1.23818182       0.00000000       0.00000000      13.94492531
2
Properties=species:S:1:pos:R:3:forces:R:3 energy=7.2097013021152945 pbc="F F F"
Na       0.00000000       0.00000000       0.00000000       0.00000000       0.00000000      -8.26737118
Na       0.00000000       0.00000000       1.29696970       0.00000000       0.00000000       8.26737118
2
Properties=species:S:1:pos:R:3:forces:R:3 energy=6.803097439682814 pbc="F F F"
Na       0.00000000       0.00000000       0.00000000       0.00000000       0.00000000      -6.28163862
Na       0.00000000       0.00000000       1.35575758       0.00000000       0.00000000       6.28163862
2
Properties=species:S:1:pos:R:3:forces:R:3 energy=6.400573625643026 pbc="F F F"
Na       0.00000000       0.00000000       0.00000000       0.00000000       0.00000000      -7.53479338
Na       0.00000000       0.00000000       1.41454545       0.00000000       0.00000000       7.53479338
2
Properties=species:S:1:pos:R:3:forces:R:3 energy=5.916743631268145 pbc="F F F"
Na       0.00000000       0.00000000       0.00000000       0.00000000       0.00000000      -8.78243256
Na       0.00000000       0.00000000       1.47333333       0.00000000       0.00000000       8.78243256
2
Properties=species:S:1:pos:R:3:forces:R:3 energy=5.363913719038319 pbc="F F F"
Na       0.00000000       0.00000000       0.00000000       0.00000000       0.00000000      -9.98372078
Na       0.00000000       0.00000000       1.53212121       0.00000000       0.00000000       9.98372078
2
Properties=species:S:1:pos:R:3:forces:R:3 energy=4.751081867901375 pbc="F F F"
Na       0.00000000       0.00000000       0.00000000       0.00000000       0.00000000     -10.94179344
Na       0.00000000       0.00000000       1.59090909       0.00000000       0.00000000      10.94179344
2
Properties=species:S:1:pos:R:3:forces:R:3 energy=4.084771278289707 pbc="F F F"
Na       0.00000000       0.00000000       0.00000000       0.00000000       0.00000000     -11.40224361
Na       0.00000000       0.00000000       1.64969697       0.00000000       0.00000000      11.40224361
2
Properties=species:S:1:pos:R:3:forces:R:3 energy=3.436089893778751 pbc="F F F"
Na       0.00000000       0.00000000       0.00000000       0.00000000       0.00000000     -10.49755573
Na       0.00000000       0.00000000       1.70848485       0.00000000       0.00000000      10.49755573
2
Properties=species:S:1:pos:R:3:forces:R:3 energy=2.8621981805699694 pbc="F F F"
Na       0.00000000       0.00000000       0.00000000       0.00000000       0.00000000      -9.14876747
Na       0.00000000       0.00000000       1.76727273       0.00000000       0.00000000       9.14876747
2
Properties=species:S:1:pos:R:3:forces:R:3 energy=2.3494992237157755 pbc="F F F"
Na       0.00000000       0.00000000       0.00000000       0.00000000       0.00000000      -8.19330120
Na       0.00000000       0.00000000       1.82606061       0.00000000       0.00000000       8.19330120
2
Properties=species:S:1:pos:R:3:forces:R:3 energy=1.9055800948658472 pbc="F F F"
Na       0.00000000       0.00000000       0.00000000       0.00000000       0.00000000      -6.88149881
Na       0.00000000       0.00000000       1.88484848       0.00000000       0.00000000       6.88149881
2
Properties=species:S:1:pos:R:3:forces:R:3 energy=1.5362187502433737 pbc="F F F"
Na       0.00000000       0.00000000       0.00000000       0.00000000       0.00000000      -5.75257683
Na       0.00000000       0.00000000       1.94363636       0.00000000       0.00000000       5.75257683
2
Properties=species:S:1:pos:R:3:forces:R:3 energy=1.220763039825327 pbc="F F F"
Na       0.00000000       0.00000000       0.00000000       0.00000000       0.00000000      -5.02097940
Na       0.00000000       0.00000000       2.00242424       0.00000000       0.00000000       5.02097940
2
Properties=species:S:1:pos:R:3:forces:R:3 energy=0.9435394735253004 pbc="F F F"
Na       0.00000000       0.00000000       0.00000000       0.00000000       0.00000000      -4.45374393
Na       0.00000000       0.00000000       2.06121212       0.00000000       0.00000000       4.45374393
2
Properties=species:S:1:pos:R:3:forces:R:3 energy=0.6918147565973893 pbc="F F F"
Na       0.00000000       0.00000000       0.00000000       0.00000000       0.00000000      -4.12533808
Na       0.00000000       0.00000000       2.12000000       0.00000000       0.00000000       4.12533808
2
Properties=species:S:1:pos:R:3:forces:R:3 energy=0.4570098186248876 pbc="F F F"
Na       0.00000000       0.00000000       0.00000000       0.00000000       0.00000000      -3.88355947
Na       0.00000000       0.00000000       2.17878788       0.00000000       0.00000000       3.88355947
2
Properties=species:S:1:pos:R:3:forces:R:3 energy=0.23604686106918982 pbc="F F F"
Na       0.00000000       0.00000000       0.00000000       0.00000000       0.00000000      -3.61021090
Na       0.00000000       0.00000000       2.23757576       0.00000000       0.00000000       3.61021090
2
Properties=species:S:1:pos:R:3:forces:R:3 energy=0.032458483667593616 pbc="F F F"
Na       0.00000000       0.00000000       0.00000000       0.00000000       0.00000000      -3.32577252
Na       0.00000000       0.00000000       2.29636364       0.00000000       0.00000000       3.32577252
2
Properties=species:S:1:pos:R:3:forces:R:3 energy=-0.15455812203671945 pbc="F F F"
Na       0.00000000       0.00000000       0.00000000       0.00000000       0.00000000      -3.02511716
Na       0.00000000       0.00000000       2.35515152       0.00000000       0.00000000       3.02511716
2
Properties=species:S:1:pos:R:3:forces:R:3 energy=-0.3222156749594783 pbc="F F F"
Na       0.00000000       0.00000000       0.00000000       0.00000000       0.00000000      -2.67381310
Na       0.00000000       0.00000000       2.41393939       0.00000000       0.00000000       2.67381310
2
Properties=species:S:1:pos:R:3:forces:R:3 energy=-0.46887230755557 pbc="F F F"
Na       0.00000000       0.00000000       0.00000000       0.00000000       0.00000000      -2.31801701
Na       0.00000000       0.00000000       2.47272727       0.00000000       0.00000000       2.31801701
2
Properties=species:S:1:pos:R:3:forces:R:3 energy=-0.5946257144216276 pbc="F F F"
Na       0.00000000       0.00000000       0.00000000       0.00000000       0.00000000      -1.95625055
Na       0.00000000       0.00000000       2.53151515       0.00000000       0.00000000       1.95625055
2
Properties=species:S:1:pos:R:3:forces:R:3 energy=-0.6991140537662176 pbc="F F F"
Na       0.00000000       0.00000000       0.00000000       0.00000000       0.00000000      -1.60867250
Na       0.00000000       0.00000000       2.59030303       0.00000000       0.00000000       1.60867250
2
Properties=species:S:1:pos:R:3:forces:R:3 energy=-0.7854231938497552 pbc="F F F"
Na       0.00000000       0.00000000       0.00000000       0.00000000       0.00000000      -1.34165084
Na       0.00000000       0.00000000       2.64909091       0.00000000       0.00000000       1.34165084
2
Properties=species:S:1:pos:R:3:forces:R:3 energy=-0.8580306782734419 pbc="F F F"
Na       0.00000000       0.00000000       0.00000000       0.00000000       0.00000000      -1.13350618
Na       0.00000000       0.00000000       2.70787879       0.00000000       0.00000000       1.13350618
2
Properties=species:S:1:pos:R:3:forces:R:3 energy=-0.9189348981453247 pbc="F F F"
Na       0.00000000       0.00000000       0.00000000       0.00000000       0.00000000      -0.93997878
Na       0.00000000       0.00000000       2.76666667       0.00000000       0.00000000       0.93997878
2
Properties=species:S:1:pos:R:3:forces:R:3 energy=-0.9689117227189126 pbc="F F F"
Na       0.00000000       0.00000000       0.00000000       0.00000000       0.00000000      -0.76511312
Na       0.00000000       0.00000000       2.82545455       0.00000000       0.00000000       0.76511312
2
Properties=species:S:1:pos:R:3:forces:R:3 energy=-1.0095818387319375 pbc="F F F"
Na       0.00000000       0.00000000       0.00000000       0.00000000       0.00000000      -0.62465763
Na       0.00000000       0.00000000       2.88424242       0.00000000       0.00000000       0.62465763
2
Properties=species:S:1:pos:R:3:forces:R:3 energy=-1.0430440039470612 pbc="F F F"
Na       0.00000000       0.00000000       0.00000000       0.00000000       0.00000000      -0.51899153
Na       0.00000000       0.00000000       2.94303030       0.00000000       0.00000000       0.51899153
2
Properties=species:S:1:pos:R:3:forces:R:3 energy=-1.0711131420726065 pbc="F F F"
Na       0.00000000       0.00000000       0.00000000       0.00000000       0.00000000      -0.43934241
Na       0.00000000       0.00000000       3.00181818       0.00000000       0.00000000       0.43934241
2
Properties=species:S:1:pos:R:3:forces:R:3 energy=-1.094994317451115 pbc="F F F"
Na       0.00000000       0.00000000       0.00000000       0.00000000       0.00000000      -0.37486947
Na       0.00000000       0.00000000       3.06060606       0.00000000       0.00000000       0.37486947
2
Properties=species:S:1:pos:R:3:forces:R:3 energy=-1.115342580218832 pbc="F F F"
Na       0.00000000       0.00000000       0.00000000       0.00000000       0.00000000      -0.31844470
Na       0.00000000       0.00000000       3.11939394       0.00000000       0.00000000       0.31844470
2
Properties=species:S:1:pos:R:3:forces:R:3 energy=-1.1325535481409197 pbc="F F F"
Na       0.00000000       0.00000000       0.00000000       0.00000000       0.00000000      -0.26815796
Na       0.00000000       0.00000000       3.17818182       0.00000000       0.00000000       0.26815796
2
Properties=species:S:1:pos:R:3:forces:R:3 energy=-1.1470162355481723 pbc="F F F"
Na       0.00000000       0.00000000       0.00000000       0.00000000       0.00000000      -0.22525817
Na       0.00000000       0.00000000       3.23696970       0.00000000       0.00000000       0.22525817
2
Properties=species:S:1:pos:R:3:forces:R:3 energy=-1.1592200200691523 pbc="F F F"
Na       0.00000000       0.00000000       0.00000000       0.00000000       0.00000000      -0.19159119
Na       0.00000000       0.00000000       3.29575758       0.00000000       0.00000000       0.19159119
2
Properties=species:S:1:pos:R:3:forces:R:3 energy=-1.1697462990224377 pbc="F F F"
Na       0.00000000       0.00000000       0.00000000       0.00000000       0.00000000      -0.16829059
Na       0.00000000       0.00000000       3.35454545       0.00000000       0.00000000       0.16829059
2
Properties=species:S:1:pos:R:3:forces:R:3 energy=-1.1792146682268156 pbc="F F F"
Na       0.00000000       0.00000000       0.00000000       0.00000000       0.00000000      -0.15554518
Na       0.00000000       0.00000000       3.41333333       0.00000000       0.00000000       0.15554518
2
Properties=species:S:1:pos:R:3:forces:R:3 energy=-1.1882370754694438 pbc="F F F"
Na       0.00000000       0.00000000       0.00000000       0.00000000       0.00000000      -0.15313368
Na       0.00000000       0.00000000       3.47212121       0.00000000       0.00000000       0.15313368
2
Properties=species:S:1:pos:R:3:forces:R:3 energy=-1.1974332154890777 pbc="F F F"
Na       0.00000000       0.00000000       0.00000000       0.00000000       0.00000000      -0.16168796
Na       0.00000000       0.00000000       3.53090909       0.00000000       0.00000000       0.16168796
2
Properties=species:S:1:pos:R:3:forces:R:3 energy=-1.207493697657674 pbc="F F F"
Na       0.00000000       0.00000000       0.00000000       0.00000000       0.00000000      -0.18269806
Na       0.00000000       0.00000000       3.58969697       0.00000000       0.00000000       0.18269806
2
Properties=species:S:1:pos:R:3:forces:R:3 energy=-1.219121137530791 pbc="F F F"
Na       0.00000000       0.00000000       0.00000000       0.00000000       0.00000000      -0.21389131
Na       0.00000000       0.00000000       3.64848485       0.00000000       0.00000000       0.21389131
2
Properties=species:S:1:pos:R:3:forces:R:3 energy=-1.2325824994397883 pbc="F F F"
Na       0.00000000       0.00000000       0.00000000       0.00000000       0.00000000      -0.24169177
Na       0.00000000       0.00000000       3.70727273       0.00000000       0.00000000       0.24169177
2
Properties=species:S:1:pos:R:3:forces:R:3 energy=-1.2470335971158015 pbc="F F F"
Na       0.00000000       0.00000000       0.00000000       0.00000000       0.00000000      -0.24412957
Na       0.00000000       0.00000000       3.76606061       0.00000000       0.00000000       0.24412957
2
Properties=species:S:1:pos:R:3:forces:R:3 energy=-1.2605632480590538 pbc="F F F"
Na       0.00000000       0.00000000       0.00000000       0.00000000       0.00000000      -0.21051721
Na       0.00000000       0.00000000       3.82484848       0.00000000       0.00000000       0.21051721
2
Properties=species:S:1:pos:R:3:forces:R:3 energy=-1.271294590398307 pbc="F F F"
Na       0.00000000       0.00000000       0.00000000       0.00000000       0.00000000      -0.15212688
Na       0.00000000       0.00000000       3.88363636       0.00000000       0.00000000       0.15212688
2
Properties=species:S:1:pos:R:3:forces:R:3 energy=-1.2783543646034867 pbc="F F F"
Na       0.00000000       0.00000000       0.00000000       0.00000000       0.00000000      -0.08854984
Na       0.00000000       0.00000000       3.94242424       0.00000000       0.00000000       0.08854984
2
Properties=species:S:1:pos:R:3:forces:R:3 energy=-1.281860263637933 pbc="F F F"
Na       0.00000000       0.00000000       0.00000000       0.00000000       0.00000000      -0.03257216
Na       0.00000000       0.00000000       4.00121212       0.00000000       0.00000000       0.03257216
2
Properties=species:S:1:pos:R:3:forces:R:3 energy=-1.2824105517561193 pbc="F F F"
Na       0.00000000       0.00000000       0.00000000       0.00000000       0.00000000       0.01195507
Na       0.00000000       0.00000000       4.06000000       0.00000000       0.00000000      -0.01195507
2
Properties=species:S:1:pos:R:3:forces:R:3 energy=-1.2806615718094174 pbc="F F F"
Na       0.00000000       0.00000000       0.00000000       0.00000000       0.00000000       0.04597993
Na       0.00000000       0.00000000       4.11878788       0.00000000       0.00000000      -0.04597993
2
Properties=species:S:1:pos:R:3:forces:R:3 energy=-1.277165248575858 pbc="F F F"
Na       0.00000000       0.00000000       0.00000000       0.00000000       0.00000000       0.07179928
Na       0.00000000       0.00000000       4.17757576       0.00000000       0.00000000      -0.07179928
2
Properties=species:S:1:pos:R:3:forces:R:3 energy=-1.2723379881067192 pbc="F F F"
Na       0.00000000       0.00000000       0.00000000       0.00000000       0.00000000       0.09155016
Na       0.00000000       0.00000000       4.23636364       0.00000000       0.00000000      -0.09155016
2
Properties=species:S:1:pos:R:3:forces:R:3 energy=-1.2664876998888486 pbc="F F F"
Na       0.00000000       0.00000000       0.00000000       0.00000000       0.00000000       0.10684890
Na       0.00000000       0.00000000       4.29515152       0.00000000       0.00000000      -0.10684890
2
Properties=species:S:1:pos:R:3:forces:R:3 energy=-1.2598403202202575 pbc="F F F"
Na       0.00000000       0.00000000       0.00000000       0.00000000       0.00000000       0.11885037
Na       0.00000000       0.00000000       4.35393939       0.00000000       0.00000000      -0.11885037
2
Properties=species:S:1:pos:R:3:forces:R:3 energy=-1.252562715244552 pbc="F F F"
Na       0.00000000       0.00000000       0.00000000       0.00000000       0.00000000       0.12838247
Na       0.00000000       0.00000000       4.41272727       0.00000000       0.00000000      -0.12838247
2
Properties=species:S:1:pos:R:3:forces:R:3 energy=-1.2447821173634952 pbc="F F F"
Na       0.00000000       0.00000000       0.00000000       0.00000000       0.00000000       0.13603911
Na       0.00000000       0.00000000       4.47151515       0.00000000       0.00000000      -0.13603911
2
Properties=species:S:1:pos:R:3:forces:R:3 energy=-1.2365965947293585 pbc="F F F"
Na       0.00000000       0.00000000       0.00000000       0.00000000       0.00000000       0.14221916
Na       0.00000000       0.00000000       4.53030303       0.00000000       0.00000000      -0.14221916
2
Properties=species:S:1:pos:R:3:forces:R:3 energy=-1.228084848134536 pbc="F F F"
Na       0.00000000       0.00000000       0.00000000       0.00000000       0.00000000       0.14715359
Na       0.00000000       0.00000000       4.58909091       0.00000000       0.00000000      -0.14715359
2
Properties=species:S:1:pos:R:3:forces:R:3 energy=-1.2193167291401776 pbc="F F F"
Na       0.00000000       0.00000000       0.00000000       0.00000000       0.00000000       0.15095393
Na       0.00000000       0.00000000       4.64787879       0.00000000       0.00000000      -0.15095393
2
Properties=species:S:1:pos:R:3:forces:R:3 energy=-1.2103581758627937 pbc="F F F"
Na       0.00000000       0.00000000       0.00000000       0.00000000       0.00000000       0.15367827
Na       0.00000000       0.00000000       4.70666667       0.00000000       0.00000000      -0.15367827
2
Properties=species:S:1:pos:R:3:forces:R:3 energy=-1.2012671762097398 pbc="F F F"
Na       0.00000000       0.00000000       0.00000000       0.00000000       0.00000000       0.15540522
Na       0.00000000       0.00000000       4.76545455       0.00000000       0.00000000      -0.15540522
2
Properties=species:S:1:pos:R:3:forces:R:3 energy=-1.192102345956556 pbc="F F F"
Na       0.00000000       0.00000000       0.00000000       0.00000000       0.00000000       0.15627240
Na       0.00000000       0.00000000       4.82424242       0.00000000       0.00000000      -0.15627240
2
Properties=species:S:1:pos:R:3:forces:R:3 energy=-1.1829068540039271 pbc="F F F"
Na       0.00000000       0.00000000       0.00000000       0.00000000       0.00000000       0.15646675
Na       0.00000000       0.00000000       4.88303030       0.00000000       0.00000000      -0.15646675
2
Properties=species:S:1:pos:R:3:forces:R:3 energy=-1.1737159677450018 pbc="F F F"
Na       0.00000000       0.00000000       0.00000000       0.00000000       0.00000000       0.15616199
Na       0.00000000       0.00000000       4.94181818       0.00000000       0.00000000      -0.15616199
2
Properties=species:S:1:pos:R:3:forces:R:3 energy=-1.1645535931642068 pbc="F F F"
Na       0.00000000       0.00000000       0.00000000       0.00000000       0.00000000       0.15543704
Na       0.00000000       0.00000000       5.00060606       0.00000000       0.00000000      -0.15543704
2
Properties=species:S:1:pos:R:3:forces:R:3 energy=-1.1554497197432927 pbc="F F F"
Na       0.00000000       0.00000000       0.00000000       0.00000000       0.00000000       0.15420341
Na       0.00000000       0.00000000       5.05939394       0.00000000       0.00000000      -0.15420341
2
Properties=species:S:1:pos:R:3:forces:R:3 energy=-1.1464379729190988 pbc="F F F"
Na       0.00000000       0.00000000       0.00000000       0.00000000       0.00000000       0.15219371
Na       0.00000000       0.00000000       5.11818182       0.00000000       0.00000000      -0.15219371
2
Properties=species:S:1:pos:R:3:forces:R:3 energy=-1.1375786416513214 pbc="F F F"
Na       0.00000000       0.00000000       0.00000000       0.00000000       0.00000000       0.14899114
Na       0.00000000       0.00000000       5.17696970       0.00000000       0.00000000      -0.14899114
2
Properties=species:S:1:pos:R:3:forces:R:3 energy=-1.1289535662623047 pbc="F F F"
Na       0.00000000       0.00000000       0.00000000       0.00000000       0.00000000       0.14413279
Na       0.00000000       0.00000000       5.23575758       0.00000000       0.00000000      -0.14413279
2
Properties=species:S:1:pos:R:3:forces:R:3 energy=-1.1206727888146775 pbc="F F F"
Na       0.00000000       0.00000000       0.00000000       0.00000000       0.00000000       0.13723287
Na       0.00000000       0.00000000       5.29454545       0.00000000       0.00000000      -0.13723287
2
Properties=species:S:1:pos:R:3:forces:R:3 energy=-1.1128618685774114 pbc="F F F"
Na       0.00000000       0.00000000       0.00000000       0.00000000       0.00000000       0.12810700
Na       0.00000000       0.00000000       5.35333333       0.00000000       0.00000000      -0.12810700
2
Properties=species:S:1:pos:R:3:forces:R:3 energy=-1.105651302909319 pbc="F F F"
Na       0.00000000       0.00000000       0.00000000       0.00000000       0.00000000       0.11685940
Na       0.00000000       0.00000000       5.41212121       0.00000000       0.00000000      -0.11685940
2
Properties=species:S:1:pos:R:3:forces:R:3 energy=-1.0991557396612455 pbc="F F F"
Na       0.00000000       0.00000000       0.00000000       0.00000000       0.00000000       0.10391188
Na       0.00000000       0.00000000       5.47090909       0.00000000       0.00000000      -0.10391188
2
Properties=species:S:1:pos:R:3:forces:R:3 energy=-1.0934540197075102 pbc="F F F"
Na       0.00000000       0.00000000       0.00000000       0.00000000       0.00000000       0.08996414
Na       0.00000000       0.00000000       5.52969697       0.00000000       0.00000000      -0.08996414
2
Properties=species:S:1:pos:R:3:forces:R:3 energy=-1.0885806445622137 pbc="F F F"
Na       0.00000000       0.00000000       0.00000000       0.00000000       0.00000000       0.07589266
Na       0.00000000       0.00000000       5.58848485       0.00000000       0.00000000      -0.07589266
2
Properties=species:S:1:pos:R:3:forces:R:3 energy=-1.084514983354818 pbc="F F F"
Na       0.00000000       0.00000000       0.00000000       0.00000000       0.00000000       0.06263432
Na       0.00000000       0.00000000       5.64727273       0.00000000       0.00000000      -0.06263432
2
Properties=species:S:1:pos:R:3:forces:R:3 energy=-1.0811845948511414 pbc="F F F"
Na       0.00000000       0.00000000       0.00000000       0.00000000       0.00000000       0.05101275
Na       0.00000000       0.00000000       5.70606061       0.00000000       0.00000000      -0.05101275
2
Properties=species:S:1:pos:R:3:forces:R:3 energy=-1.0784725415696632 pbc="F F F"
Na       0.00000000       0.00000000       0.00000000       0.00000000       0.00000000       0.04161597
Na       0.00000000       0.00000000       5.76484848       0.00000000       0.00000000      -0.04161597
2
Properties=species:S:1:pos:R:3:forces:R:3 energy=-1.076242340537034 pbc="F F F"
Na       0.00000000       0.00000000       0.00000000       0.00000000       0.00000000       0.03472225
Na       0.00000000       0.00000000       5.82363636       0.00000000       0.00000000      -0.03472225
2
Properties=species:S:1:pos:R:3:forces:R:3 energy=-1.0743435934671326 pbc="F F F"
Na       0.00000000       0.00000000       0.00000000       0.00000000       0.00000000       0.03020739
Na       0.00000000       0.00000000       5.88242424       0.00000000       0.00000000      -0.03020739
2
Properties=species:S:1:pos:R:3:forces:R:3 energy=-1.0726527238279524 pbc="F F F"
Na       0.00000000       0.00000000       0.00000000       0.00000000       0.00000000       0.02757791
Na       0.00000000       0.00000000       5.94121212       0.00000000       0.00000000      -0.02757791
2
Properties=species:S:1:pos:R:3:forces:R:3 energy=-1.0710802371049282 pbc="F F F"
Na       0.00000000       0.00000000       0.00000000       0.00000000       0.00000000       0.02602784
Na       0.00000000       0.00000000       6.00000000       0.00000000       0.00000000      -0.02602784
