2
Properties=species:S:1:pos:R:3:forces:R:3 energy=-749554.3922158495 pbc="F F F"
Nb       0.00000000       0.00000000       0.00000000       0.00000000       0.00000000 4626041.00000000
Nb       0.00000000       0.00000000       0.18000000       0.00000000       0.00000000 -4626041.00000000
2
Properties=species:S:1:pos:R:3:forces:R:3 energy=260005.87340915052 pbc="F F F"
Nb       0.00000000       0.00000000       0.00000000       0.00000000       0.00000000 15803486.00000000
Nb       0.00000000       0.00000000       0.23878788       0.00000000       0.00000000 -15803486.00000000
2
Properties=species:S:1:pos:R:3:forces:R:3 energy=505560.9827841505 pbc="F F F"
Nb       0.00000000       0.00000000       0.00000000       0.00000000       0.00000000 -8219901.00000000
Nb       0.00000000       0.00000000       0.29757576       0.00000000       0.00000000 8219901.00000000
2
Properties=species:S:1:pos:R:3:forces:R:3 energy=186400.88903415052 pbc="F F F"
Nb       0.00000000       0.00000000       0.00000000       0.00000000       0.00000000 -3366551.50000000
Nb       0.00000000       0.00000000       0.35636364       0.00000000       0.00000000 3366551.50000000
2
Properties=species:S:1:pos:R:3:forces:R:3 energy=51986.42028416319 pbc="F F F"
Nb       0.00000000       0.00000000       0.00000000       0.00000000       0.00000000 -1360556.37500000
Nb       0.00000000       0.00000000       0.41515152       0.00000000       0.00000000 1360556.37500000
2
Properties=species:S:1:pos:R:3:forces:R:3 energy=20861.521846675863 pbc="F F F"
Nb       0.00000000       0.00000000       0.00000000       0.00000000       0.00000000 -493195.50000000
Nb       0.00000000       0.00000000       0.47393939       0.00000000       0.00000000  493195.50000000
2
Properties=species:S:1:pos:R:3:forces:R:3 energy=4209.2737998262055 pbc="F F F"
Nb       0.00000000       0.00000000       0.00000000       0.00000000       0.00000000 -139409.04687500
Nb       0.00000000       0.00000000       0.53272727       0.00000000       0.00000000  139409.04687500
2
Properties=species:S:1:pos:R:3:forces:R:3 energy=435.9678306512807 pbc="F F F"
Nb       0.00000000       0.00000000       0.00000000       0.00000000       0.00000000  -22378.68554688
Nb       0.00000000       0.00000000       0.59151515       0.00000000       0.00000000   22378.68554688
2
Properties=species:S:1:pos:R:3:forces:R:3 energy=54.25304801246465 pbc="F F F"
Nb       0.00000000       0.00000000       0.00000000       0.00000000       0.00000000    -196.22285461
Nb       0.00000000       0.00000000       0.65030303       0.00000000       0.00000000     196.22285461
2
Properties=species:S:1:pos:R:3:forces:R:3 energy=46.687504023430854 pbc="F F F"
Nb       0.00000000       0.00000000       0.00000000       0.00000000       0.00000000    -125.17225647
Nb       0.00000000       0.00000000       0.70909091       0.00000000       0.00000000     125.17225647
2
Properties=species:S:1:pos:R:3:forces:R:3 energy=37.28968470712851 pbc="F F F"
Nb       0.00000000       0.00000000       0.00000000       0.00000000       0.00000000    -217.23469543
Nb       0.00000000       0.00000000       0.76787879       0.00000000       0.00000000     217.23469543
2
Properties=species:S:1:pos:R:3:forces:R:3 energy=39.271374464364435 pbc="F F F"
Nb       0.00000000       0.00000000       0.00000000       0.00000000       0.00000000     -14.76621246
Nb       0.00000000       0.00000000       0.82666667       0.00000000       0.00000000      14.76621246
2
Properties=species:S:1:pos:R:3:forces:R:3 energy=38.16196937127447 pbc="F F F"
Nb       0.00000000       0.00000000       0.00000000       0.00000000       0.00000000     -62.50903320
Nb       0.00000000       0.00000000       0.88545455       0.00000000       0.00000000      62.50903320
2
Properties=species:S:1:pos:R:3:forces:R:3 energy=486.3385294214029 pbc="F F F"
Nb       0.00000000       0.00000000       0.00000000       0.00000000       0.00000000    8767.43652344
Nb       0.00000000       0.00000000       0.94424242       0.00000000       0.00000000   -8767.43652344
2
Properties=species:S:1:pos:R:3:forces:R:3 energy=584.9561144798879 pbc="F F F"
Nb       0.00000000       0.00000000       0.00000000       0.00000000       0.00000000   -3310.56665039
Nb       0.00000000       0.00000000       1.00303030       0.00000000       0.00000000    3310.56665039
2
Properties=species:S:1:pos:R:3:forces:R:3 energy=363.4275206305938 pbc="F F F"
Nb       0.00000000       0.00000000       0.00000000       0.00000000       0.00000000   -3444.70214844
Nb       0.00000000       0.00000000       1.06181818       0.00000000       0.00000000    3444.70214844
2
Properties=species:S:1:pos:R:3:forces:R:3 energy=193.29826491098615 pbc="F F F"
Nb       0.00000000       0.00000000       0.00000000       0.00000000       0.00000000   -2432.53564453
Nb       0.00000000       0.00000000       1.12060606       0.00000000       0.00000000    2432.53564453
2
Properties=species:S:1:pos:R:3:forces:R:3 energy=88.19597193415395 pbc="F F F"
Nb       0.00000000       0.00000000       0.00000000       0.00000000       0.00000000   -1193.97741699
Nb       0.00000000       0.00000000       1.17939394       0.00000000       0.00000000    1193.97741699
2
Properties=species:S:1:pos:R:3:forces:R:3 energy=37.92758760858441 pbc="F F F"
Nb       0.00000000       0.00000000       0.00000000       0.00000000       0.00000000    -648.55212402
Nb       0.00000000       0.00000000       1.23818182       0.00000000       0.00000000     648.55212402
2
Properties=species:S:1:pos:R:3:forces:R:3 energy=8.682845572575113 pbc="F F F"
Nb       0.00000000       0.00000000       0.00000000       0.00000000       0.00000000    -293.38986206
Nb       0.00000000       0.00000000       1.29696970       0.00000000       0.00000000     293.38986206
2
Properties=species:S:1:pos:R:3:forces:R:3 energy=-0.50404763777328 pbc="F F F"
Nb       0.00000000       0.00000000       0.00000000       0.00000000       0.00000000     -80.99449158
Nb       0.00000000       0.00000000       1.35575758       0.00000000       0.00000000      80.99449158
2
Properties=species:S:1:pos:R:3:forces:R:3 energy=-3.7485341147280593 pbc="F F F"
Nb       0.00000000       0.00000000       0.00000000       0.00000000       0.00000000     -36.23975372
Nb       0.00000000       0.00000000       1.41454545       0.00000000       0.00000000      36.23975372
2
Properties=species:S:1:pos:R:3:forces:R:3 energy=-4.856569536053783 pbc="F F F"
Nb       0.00000000       0.00000000       0.00000000       0.00000000       0.00000000      -2.69501901
Nb       0.00000000       0.00000000       1.47333333       0.00000000       0.00000000       2.69501901
2
Properties=species:S:1:pos:R:3:forces:R:3 energy=-4.5109749664779 pbc="F F F"
Nb       0.00000000       0.00000000       0.00000000       0.00000000       0.00000000       8.52999115
Nb       0.00000000       0.00000000       1.53212121       0.00000000       0.00000000      -8.52999115
2
Properties=species:S:1:pos:R:3:forces:R:3 energy=-4.319158619113412 pbc="F F F"
Nb       0.00000000       0.00000000       0.00000000       0.00000000       0.00000000      -2.86479998
Nb       0.00000000       0.00000000       1.59090909       0.00000000       0.00000000       2.86479998
2
Properties=species:S:1:pos:R:3:forces:R:3 energy=-4.790799996832202 pbc="F F F"
Nb       0.00000000       0.00000000       0.00000000       0.00000000       0.00000000     -12.46127701
Nb       0.00000000       0.00000000       1.64969697       0.00000000       0.00000000      12.46127701
2
Properties=species:S:1:pos:R:3:forces:R:3 energy=-5.718772152749128 pbc="F F F"
Nb       0.00000000       0.00000000       0.00000000       0.00000000       0.00000000     -18.64645767
Nb       0.00000000       0.00000000       1.70848485       0.00000000       0.00000000      18.64645767
2
Properties=species:S:1:pos:R:3:forces:R:3 energy=-6.862336753672603 pbc="F F F"
Nb       0.00000000       0.00000000       0.00000000       0.00000000       0.00000000     -19.30243492
Nb       0.00000000       0.00000000       1.76727273       0.00000000       0.00000000      19.30243492
2
Properties=species:S:1:pos:R:3:forces:R:3 energy=-7.947874715008209 pbc="F F F"
Nb       0.00000000       0.00000000       0.00000000       0.00000000       0.00000000     -17.38278770
Nb       0.00000000       0.00000000       1.82606061       0.00000000       0.00000000      17.38278770
2
Properties=species:S:1:pos:R:3:forces:R:3 energy=-8.884538558873052 pbc="F F F"
Nb       0.00000000       0.00000000       0.00000000       0.00000000       0.00000000     -14.51216602
Nb       0.00000000       0.00000000       1.88484848       0.00000000       0.00000000      14.51216602
2
Properties=species:S:1:pos:R:3:forces:R:3 energy=-9.649255580028282 pbc="F F F"
Nb       0.00000000       0.00000000       0.00000000       0.00000000       0.00000000     -11.36199188
Nb       0.00000000       0.00000000       1.94363636       0.00000000       0.00000000      11.36199188
2
Properties=species:S:1:pos:R:3:forces:R:3 energy=-10.223316278952424 pbc="F F F"
Nb       0.00000000       0.00000000       0.00000000       0.00000000       0.00000000      -8.29293442
Nb       0.00000000       0.00000000       2.00242424       0.00000000       0.00000000       8.29293442
2
Properties=species:S:1:pos:R:3:forces:R:3 energy=-10.634446632641389 pbc="F F F"
Nb       0.00000000       0.00000000       0.00000000       0.00000000       0.00000000      -5.68507767
Nb       0.00000000       0.00000000       2.06121212       0.00000000       0.00000000       5.68507767
2
Properties=species:S:1:pos:R:3:forces:R:3 energy=-10.887215941835203 pbc="F F F"
Nb       0.00000000       0.00000000       0.00000000       0.00000000       0.00000000      -2.92588711
Nb       0.00000000       0.00000000       2.12000000       0.00000000       0.00000000       2.92588711
2
Properties=species:S:1:pos:R:3:forces:R:3 energy=-10.992157523359614 pbc="F F F"
Nb       0.00000000       0.00000000       0.00000000       0.00000000       0.00000000      -0.81352258
Nb       0.00000000       0.00000000       2.17878788       0.00000000       0.00000000       0.81352258
2
Properties=species:S:1:pos:R:3:forces:R:3 energy=-10.9930319426746 pbc="F F F"
Nb       0.00000000       0.00000000       0.00000000       0.00000000       0.00000000       0.75654358
Nb       0.00000000       0.00000000       2.23757576       0.00000000       0.00000000      -0.75654358
2
Properties=species:S:1:pos:R:3:forces:R:3 energy=-10.91197640056037 pbc="F F F"
Nb       0.00000000       0.00000000       0.00000000       0.00000000       0.00000000       1.91184747
Nb       0.00000000       0.00000000       2.29636364       0.00000000       0.00000000      -1.91184747
2
Properties=species:S:1:pos:R:3:forces:R:3 energy=-10.772211867318791 pbc="F F F"
Nb       0.00000000       0.00000000       0.00000000       0.00000000       0.00000000       2.84042621
Nb       0.00000000       0.00000000       2.35515152       0.00000000       0.00000000      -2.84042621
2
Properties=species:S:1:pos:R:3:forces:R:3 energy=-10.58249511466141 pbc="F F F"
Nb       0.00000000       0.00000000       0.00000000       0.00000000       0.00000000       3.54691601
Nb       0.00000000       0.00000000       2.41393939       0.00000000       0.00000000      -3.54691601
2
Properties=species:S:1:pos:R:3:forces:R:3 energy=-10.362593935307894 pbc="F F F"
Nb       0.00000000       0.00000000       0.00000000       0.00000000       0.00000000       3.87637997
Nb       0.00000000       0.00000000       2.47272727       0.00000000       0.00000000      -3.87637997
2
Properties=species:S:1:pos:R:3:forces:R:3 energy=-10.132138334791753 pbc="F F F"
Nb       0.00000000       0.00000000       0.00000000       0.00000000       0.00000000       3.93830919
Nb       0.00000000       0.00000000       2.53151515       0.00000000       0.00000000      -3.93830919
2
Properties=species:S:1:pos:R:3:forces:R:3 energy=-9.901142411620938 pbc="F F F"
Nb       0.00000000       0.00000000       0.00000000       0.00000000       0.00000000       3.90688586
Nb       0.00000000       0.00000000       2.59030303       0.00000000       0.00000000      -3.90688586
2
Properties=species:S:1:pos:R:3:forces:R:3 energy=-9.674663064697993 pbc="F F F"
Nb       0.00000000       0.00000000       0.00000000       0.00000000       0.00000000       3.78505206
Nb       0.00000000       0.00000000       2.64909091       0.00000000       0.00000000      -3.78505206
2
Properties=species:S:1:pos:R:3:forces:R:3 energy=-9.45671698588451 pbc="F F F"
Nb       0.00000000       0.00000000       0.00000000       0.00000000       0.00000000       3.63095593
Nb       0.00000000       0.00000000       2.70787879       0.00000000       0.00000000      -3.63095593
2
Properties=species:S:1:pos:R:3:forces:R:3 energy=-9.24749668967604 pbc="F F F"
Nb       0.00000000       0.00000000       0.00000000       0.00000000       0.00000000       3.48676062
Nb       0.00000000       0.00000000       2.76666667       0.00000000       0.00000000      -3.48676062
2
Properties=species:S:1:pos:R:3:forces:R:3 energy=-9.047115631665962 pbc="F F F"
Nb       0.00000000       0.00000000       0.00000000       0.00000000       0.00000000       3.32497144
Nb       0.00000000       0.00000000       2.82545455       0.00000000       0.00000000      -3.32497144
2
Properties=species:S:1:pos:R:3:forces:R:3 energy=-8.857256885723924 pbc="F F F"
Nb       0.00000000       0.00000000       0.00000000       0.00000000       0.00000000       3.12892413
Nb       0.00000000       0.00000000       2.88424242       0.00000000       0.00000000      -3.12892413
2
Properties=species:S:1:pos:R:3:forces:R:3 energy=-8.679576871096943 pbc="F F F"
Nb       0.00000000       0.00000000       0.00000000       0.00000000       0.00000000       2.91566133
Nb       0.00000000       0.00000000       2.94303030       0.00000000       0.00000000      -2.91566133
2
Properties=species:S:1:pos:R:3:forces:R:3 energy=-8.514165497508246 pbc="F F F"
Nb       0.00000000       0.00000000       0.00000000       0.00000000       0.00000000       2.71607924
Nb       0.00000000       0.00000000       3.00181818       0.00000000       0.00000000      -2.71607924
2
Properties=species:S:1:pos:R:3:forces:R:3 energy=-8.359706790002935 pbc="F F F"
Nb       0.00000000       0.00000000       0.00000000       0.00000000       0.00000000       2.54198146
Nb       0.00000000       0.00000000       3.06060606       0.00000000       0.00000000      -2.54198146
2
Properties=species:S:1:pos:R:3:forces:R:3 energy=-8.215103725055018 pbc="F F F"
Nb       0.00000000       0.00000000       0.00000000       0.00000000       0.00000000       2.37781501
Nb       0.00000000       0.00000000       3.11939394       0.00000000       0.00000000      -2.37781501
2
Properties=species:S:1:pos:R:3:forces:R:3 energy=-8.08008781160824 pbc="F F F"
Nb       0.00000000       0.00000000       0.00000000       0.00000000       0.00000000       2.21679807
Nb       0.00000000       0.00000000       3.17818182       0.00000000       0.00000000      -2.21679807
2
Properties=species:S:1:pos:R:3:forces:R:3 energy=-7.954225280361849 pbc="F F F"
Nb       0.00000000       0.00000000       0.00000000       0.00000000       0.00000000       2.06734133
Nb       0.00000000       0.00000000       3.23696970       0.00000000       0.00000000      -2.06734133
2
Properties=species:S:1:pos:R:3:forces:R:3 energy=-7.836779361854163 pbc="F F F"
Nb       0.00000000       0.00000000       0.00000000       0.00000000       0.00000000       1.92985117
Nb       0.00000000       0.00000000       3.29575758       0.00000000       0.00000000      -1.92985117
2
Properties=species:S:1:pos:R:3:forces:R:3 energy=-7.727178808058467 pbc="F F F"
Nb       0.00000000       0.00000000       0.00000000       0.00000000       0.00000000       1.79983914
Nb       0.00000000       0.00000000       3.35454545       0.00000000       0.00000000      -1.79983914
2
Properties=species:S:1:pos:R:3:forces:R:3 energy=-7.625048194582096 pbc="F F F"
Nb       0.00000000       0.00000000       0.00000000       0.00000000       0.00000000       1.67581344
Nb       0.00000000       0.00000000       3.41333333       0.00000000       0.00000000      -1.67581344
2
Properties=species:S:1:pos:R:3:forces:R:3 energy=-7.530001734447964 pbc="F F F"
Nb       0.00000000       0.00000000       0.00000000       0.00000000       0.00000000       1.55917656
Nb       0.00000000       0.00000000       3.47212121       0.00000000       0.00000000      -1.55917656
2
Properties=species:S:1:pos:R:3:forces:R:3 energy=-7.441519136084737 pbc="F F F"
Nb       0.00000000       0.00000000       0.00000000       0.00000000       0.00000000       1.45295918
Nb       0.00000000       0.00000000       3.53090909       0.00000000       0.00000000      -1.45295918
2
Properties=species:S:1:pos:R:3:forces:R:3 energy=-7.3589223617706 pbc="F F F"
Nb       0.00000000       0.00000000       0.00000000       0.00000000       0.00000000       1.35910141
Nb       0.00000000       0.00000000       3.58969697       0.00000000       0.00000000      -1.35910141
2
Properties=species:S:1:pos:R:3:forces:R:3 energy=-7.281498469498865 pbc="F F F"
Nb       0.00000000       0.00000000       0.00000000       0.00000000       0.00000000       1.27652490
Nb       0.00000000       0.00000000       3.64848485       0.00000000       0.00000000      -1.27652490
2
Properties=species:S:1:pos:R:3:forces:R:3 energy=-7.208676748612944 pbc="F F F"
Nb       0.00000000       0.00000000       0.00000000       0.00000000       0.00000000       1.20209765
Nb       0.00000000       0.00000000       3.70727273       0.00000000       0.00000000      -1.20209765
2
Properties=species:S:1:pos:R:3:forces:R:3 energy=-7.14006946849091 pbc="F F F"
Nb       0.00000000       0.00000000       0.00000000       0.00000000       0.00000000       1.13251567
Nb       0.00000000       0.00000000       3.76606061       0.00000000       0.00000000      -1.13251567
2
Properties=species:S:1:pos:R:3:forces:R:3 energy=-7.075477694666963 pbc="F F F"
Nb       0.00000000       0.00000000       0.00000000       0.00000000       0.00000000       1.06511700
Nb       0.00000000       0.00000000       3.82484848       0.00000000       0.00000000      -1.06511700
2
Properties=species:S:1:pos:R:3:forces:R:3 energy=-7.014835855024141 pbc="F F F"
Nb       0.00000000       0.00000000       0.00000000       0.00000000       0.00000000       0.99779421
Nb       0.00000000       0.00000000       3.88363636       0.00000000       0.00000000      -0.99779421
2
Properties=species:S:1:pos:R:3:forces:R:3 energy=-6.958189510517722 pbc="F F F"
Nb       0.00000000       0.00000000       0.00000000       0.00000000       0.00000000       0.92893326
Nb       0.00000000       0.00000000       3.94242424       0.00000000       0.00000000      -0.92893326
2
Properties=species:S:1:pos:R:3:forces:R:3 energy=-6.905665230407058 pbc="F F F"
Nb       0.00000000       0.00000000       0.00000000       0.00000000       0.00000000       0.85767770
Nb       0.00000000       0.00000000       4.00121212       0.00000000       0.00000000      -0.85767770
2
Properties=species:S:1:pos:R:3:forces:R:3 energy=-6.857388544586133 pbc="F F F"
Nb       0.00000000       0.00000000       0.00000000       0.00000000       0.00000000       0.78431255
Nb       0.00000000       0.00000000       4.06000000       0.00000000       0.00000000      -0.78431255
2
Properties=species:S:1:pos:R:3:forces:R:3 energy=-6.813459426819691 pbc="F F F"
Nb       0.00000000       0.00000000       0.00000000       0.00000000       0.00000000       0.71030492
Nb       0.00000000       0.00000000       4.11878788       0.00000000       0.00000000      -0.71030492
2
Properties=species:S:1:pos:R:3:forces:R:3 energy=-6.773847308205052 pbc="F F F"
Nb       0.00000000       0.00000000       0.00000000       0.00000000       0.00000000       0.63780338
Nb       0.00000000       0.00000000       4.17757576       0.00000000       0.00000000      -0.63780338
2
Properties=species:S:1:pos:R:3:forces:R:3 energy=-6.7384025656134225 pbc="F F F"
Nb       0.00000000       0.00000000       0.00000000       0.00000000       0.00000000       0.56889272
Nb       0.00000000       0.00000000       4.23636364       0.00000000       0.00000000      -0.56889272
2
Properties=species:S:1:pos:R:3:forces:R:3 energy=-6.706860374401026 pbc="F F F"
Nb       0.00000000       0.00000000       0.00000000       0.00000000       0.00000000       0.50499451
Nb       0.00000000       0.00000000       4.29515152       0.00000000       0.00000000      -0.50499451
2
Properties=species:S:1:pos:R:3:forces:R:3 energy=-6.678913174985856 pbc="F F F"
Nb       0.00000000       0.00000000       0.00000000       0.00000000       0.00000000       0.44669589
Nb       0.00000000       0.00000000       4.35393939       0.00000000       0.00000000      -0.44669589
2
Properties=species:S:1:pos:R:3:forces:R:3 energy=-6.654231444606382 pbc="F F F"
Nb       0.00000000       0.00000000       0.00000000       0.00000000       0.00000000       0.39388973
Nb       0.00000000       0.00000000       4.41272727       0.00000000       0.00000000      -0.39388973
2
Properties=species:S:1:pos:R:3:forces:R:3 energy=-6.632503840341858 pbc="F F F"
Nb       0.00000000       0.00000000       0.00000000       0.00000000       0.00000000       0.34609032
Nb       0.00000000       0.00000000       4.47151515       0.00000000       0.00000000      -0.34609032
2
Properties=species:S:1:pos:R:3:forces:R:3 energy=-6.613452166461743 pbc="F F F"
Nb       0.00000000       0.00000000       0.00000000       0.00000000       0.00000000       0.30271828
Nb       0.00000000       0.00000000       4.53030303       0.00000000       0.00000000      -0.30271828
2
Properties=species:S:1:pos:R:3:forces:R:3 energy=-6.596835125766526 pbc="F F F"
Nb       0.00000000       0.00000000       0.00000000       0.00000000       0.00000000       0.26328814
Nb       0.00000000       0.00000000       4.58909091       0.00000000       0.00000000      -0.26328814
2
Properties=species:S:1:pos:R:3:forces:R:3 energy=-6.58242343535648 pbc="F F F"
Nb       0.00000000       0.00000000       0.00000000       0.00000000       0.00000000       0.22751021
Nb       0.00000000       0.00000000       4.64787879       0.00000000       0.00000000      -0.22751021
2
Properties=species:S:1:pos:R:3:forces:R:3 energy=-6.570014660932559 pbc="F F F"
Nb       0.00000000       0.00000000       0.00000000       0.00000000       0.00000000       0.19528811
Nb       0.00000000       0.00000000       4.70666667       0.00000000       0.00000000      -0.19528811
2
Properties=species:S:1:pos:R:3:forces:R:3 energy=-6.559395126844533 pbc="F F F"
Nb       0.00000000       0.00000000       0.00000000       0.00000000       0.00000000       0.16668439
Nb       0.00000000       0.00000000       4.76545455       0.00000000       0.00000000      -0.16668439
2
Properties=species:S:1:pos:R:3:forces:R:3 energy=-6.550345321354679 pbc="F F F"
Nb       0.00000000       0.00000000       0.00000000       0.00000000       0.00000000       0.14185354
Nb       0.00000000       0.00000000       4.82424242       0.00000000       0.00000000      -0.14185354
2
Properties=species:S:1:pos:R:3:forces:R:3 energy=-6.542637887918836 pbc="F F F"
Nb       0.00000000       0.00000000       0.00000000       0.00000000       0.00000000       0.12097627
Nb       0.00000000       0.00000000       4.88303030       0.00000000       0.00000000      -0.12097627
2
Properties=species:S:1:pos:R:3:forces:R:3 energy=-6.536039215752824 pbc="F F F"
Nb       0.00000000       0.00000000       0.00000000       0.00000000       0.00000000       0.10416646
Nb       0.00000000       0.00000000       4.94181818       0.00000000       0.00000000      -0.10416646
2
Properties=species:S:1:pos:R:3:forces:R:3 energy=-6.530311296495923 pbc="F F F"
Nb       0.00000000       0.00000000       0.00000000       0.00000000       0.00000000       0.09140795
Nb       0.00000000       0.00000000       5.00060606       0.00000000       0.00000000      -0.09140795
2
Properties=species:S:1:pos:R:3:forces:R:3 energy=-6.525215513565557 pbc="F F F"
Nb       0.00000000       0.00000000       0.00000000       0.00000000       0.00000000       0.08246603
Nb       0.00000000       0.00000000       5.05939394       0.00000000       0.00000000      -0.08246603
2
Properties=species:S:1:pos:R:3:forces:R:3 energy=-6.520552367025088 pbc="F F F"
Nb       0.00000000       0.00000000       0.00000000       0.00000000       0.00000000       0.07685196
Nb       0.00000000       0.00000000       5.11818182       0.00000000       0.00000000      -0.07685196
2
Properties=species:S:1:pos:R:3:forces:R:3 energy=-6.516131019362126 pbc="F F F"
Nb       0.00000000       0.00000000       0.00000000       0.00000000       0.00000000       0.07382258
Nb       0.00000000       0.00000000       5.17696970       0.00000000       0.00000000      -0.07382258
2
Properties=species:S:1:pos:R:3:forces:R:3 energy=-6.5118398357097265 pbc="F F F"
Nb       0.00000000       0.00000000       0.00000000       0.00000000       0.00000000       0.07245156
Nb       0.00000000       0.00000000       5.23575758       0.00000000       0.00000000      -0.07245156
2
Properties=species:S:1:pos:R:3:forces:R:3 energy=-6.507600487101958 pbc="F F F"
Nb       0.00000000       0.00000000       0.00000000       0.00000000       0.00000000       0.07174113
Nb       0.00000000       0.00000000       5.29454545       0.00000000       0.00000000      -0.07174113
2
Properties=species:S:1:pos:R:3:forces:R:3 energy=-6.503410029353247 pbc="F F F"
Nb       0.00000000       0.00000000       0.00000000       0.00000000       0.00000000       0.07076581
Nb       0.00000000       0.00000000       5.35333333       0.00000000       0.00000000      -0.07076581
2
Properties=species:S:1:pos:R:3:forces:R:3 energy=-6.499296986522488 pbc="F F F"
Nb       0.00000000       0.00000000       0.00000000       0.00000000       0.00000000       0.06881473
Nb       0.00000000       0.00000000       5.41212121       0.00000000       0.00000000      -0.06881473
2
Properties=species:S:1:pos:R:3:forces:R:3 energy=-6.495344251767927 pbc="F F F"
Nb       0.00000000       0.00000000       0.00000000       0.00000000       0.00000000       0.06548820
Nb       0.00000000       0.00000000       5.47090909       0.00000000       0.00000000      -0.06548820
2
Properties=species:S:1:pos:R:3:forces:R:3 energy=-6.491626268387343 pbc="F F F"
Nb       0.00000000       0.00000000       0.00000000       0.00000000       0.00000000       0.06074075
Nb       0.00000000       0.00000000       5.52969697       0.00000000       0.00000000      -0.06074075
2
Properties=species:S:1:pos:R:3:forces:R:3 energy=-6.488224342460085 pbc="F F F"
Nb       0.00000000       0.00000000       0.00000000       0.00000000       0.00000000       0.05485833
Nb       0.00000000       0.00000000       5.58848485       0.00000000       0.00000000      -0.05485833
2
Properties=species:S:1:pos:R:3:forces:R:3 energy=-6.4851904222299845 pbc="F F F"
Nb       0.00000000       0.00000000       0.00000000       0.00000000       0.00000000       0.04837433
Nb       0.00000000       0.00000000       5.64727273       0.00000000       0.00000000      -0.04837433
2
Properties=species:S:1:pos:R:3:forces:R:3 energy=-6.482535761719511 pbc="F F F"
Nb       0.00000000       0.00000000       0.00000000       0.00000000       0.00000000       0.04193847
Nb       0.00000000       0.00000000       5.70606061       0.00000000       0.00000000      -0.04193847
2
Properties=species:S:1:pos:R:3:forces:R:3 energy=-6.480242478863161 pbc="F F F"
Nb       0.00000000       0.00000000       0.00000000       0.00000000       0.00000000       0.03617632
Nb       0.00000000       0.00000000       5.76484848       0.00000000       0.00000000      -0.03617632
2
Properties=species:S:1:pos:R:3:forces:R:3 energy=-6.478261686172701 pbc="F F F"
Nb       0.00000000       0.00000000       0.00000000       0.00000000       0.00000000       0.03155275
Nb       0.00000000       0.00000000       5.82363636       0.00000000       0.00000000      -0.03155275
2
Properties=species:S:1:pos:R:3:forces:R:3 energy=-6.476507794033835 pbc="F F F"
Nb       0.00000000       0.00000000       0.00000000       0.00000000       0.00000000       0.02824727
Nb       0.00000000       0.00000000       5.88242424       0.00000000       0.00000000      -0.02824727
2
Properties=species:S:1:pos:R:3:forces:R:3 energy=-6.47491592757017 pbc="F F F"
Nb       0.00000000       0.00000000       0.00000000       0.00000000       0.00000000       0.02610962
Nb       0.00000000       0.00000000       5.94121212       0.00000000       0.00000000      -0.02610962
2
Properties=species:S:1:pos:R:3:forces:R:3 energy=-6.473426594994243 pbc="F F F"
Nb       0.00000000       0.00000000       0.00000000       0.00000000       0.00000000       0.02468648
Nb       0.00000000       0.00000000       6.00000000       0.00000000       0.00000000      -0.02468648
