2
Properties=species:S:1:pos:R:3:forces:R:3 energy=98.5065925267573 pbc="F F F"
Nd       0.00000000       0.00000000       0.00000000       0.00000000       0.00000000    -430.79827881
Nd       0.00000000       0.00000000       0.18000000       0.00000000       0.00000000     430.79827881
2
Properties=species:S:1:pos:R:3:forces:R:3 energy=70.29883648427683 pbc="F F F"
Nd       0.00000000       0.00000000       0.00000000       0.00000000       0.00000000    -522.74481201
Nd       0.00000000       0.00000000       0.23878788       0.00000000       0.00000000     522.74481201
2
Properties=species:S:1:pos:R:3:forces:R:3 energy=38.06255413564403 pbc="F F F"
Nd       0.00000000       0.00000000       0.00000000       0.00000000       0.00000000    -562.89624023
Nd       0.00000000       0.00000000       0.29757576       0.00000000       0.00000000     562.89624023
2
Properties=species:S:1:pos:R:3:forces:R:3 energy=6.441872372948714 pbc="F F F"
Nd       0.00000000       0.00000000       0.00000000       0.00000000       0.00000000    -457.33663940
Nd       0.00000000       0.00000000       0.35636364       0.00000000       0.00000000     457.33663940
2
Properties=species:S:1:pos:R:3:forces:R:3 energy=-3054.841895314575 pbc="F F F"
Nd       0.00000000       0.00000000       0.00000000       0.00000000       0.00000000  -13064.67480469
Nd       0.00000000       0.00000000       0.41515152       0.00000000       0.00000000   13064.67480469
2
Properties=species:S:1:pos:R:3:forces:R:3 energy=-2499.703223426904 pbc="F F F"
Nd       0.00000000       0.00000000       0.00000000       0.00000000       0.00000000   23517.33398438
Nd       0.00000000       0.00000000       0.47393939       0.00000000       0.00000000  -23517.33398438
2
Properties=species:S:1:pos:R:3:forces:R:3 energy=-1608.2275154064203 pbc="F F F"
Nd       0.00000000       0.00000000       0.00000000       0.00000000       0.00000000   13248.91601562
Nd       0.00000000       0.00000000       0.53272727       0.00000000       0.00000000  -13248.91601562
2
Properties=species:S:1:pos:R:3:forces:R:3 energy=-830.6852180051251 pbc="F F F"
Nd       0.00000000       0.00000000       0.00000000       0.00000000       0.00000000   17043.87109375
Nd       0.00000000       0.00000000       0.59151515       0.00000000       0.00000000  -17043.87109375
2
Properties=species:S:1:pos:R:3:forces:R:3 energy=-217.37403021029934 pbc="F F F"
Nd       0.00000000       0.00000000       0.00000000       0.00000000       0.00000000    5400.88623047
Nd       0.00000000       0.00000000       0.65030303       0.00000000       0.00000000   -5400.88623047
2
Properties=species:S:1:pos:R:3:forces:R:3 energy=-56.905787489007935 pbc="F F F"
Nd       0.00000000       0.00000000       0.00000000       0.00000000       0.00000000    1309.21728516
Nd       0.00000000       0.00000000       0.70909091       0.00000000       0.00000000   -1309.21728516
2
Properties=species:S:1:pos:R:3:forces:R:3 energy=-14.141836086062918 pbc="F F F"
Nd       0.00000000       0.00000000       0.00000000       0.00000000       0.00000000     224.93463135
Nd       0.00000000       0.00000000       0.76787879       0.00000000       0.00000000    -224.93463135
2
Properties=species:S:1:pos:R:3:forces:R:3 energy=-11.357920388950523 pbc="F F F"
Nd       0.00000000       0.00000000       0.00000000       0.00000000       0.00000000      44.93834686
Nd       0.00000000       0.00000000       0.82666667       0.00000000       0.00000000     -44.93834686
2
Properties=species:S:1:pos:R:3:forces:R:3 energy=2.131791625949859 pbc="F F F"
Nd       0.00000000       0.00000000       0.00000000       0.00000000       0.00000000     160.78311157
Nd       0.00000000       0.00000000       0.88545455       0.00000000       0.00000000    -160.78311157
2
Properties=species:S:1:pos:R:3:forces:R:3 energy=17.065805347445156 pbc="F F F"
Nd       0.00000000       0.00000000       0.00000000       0.00000000       0.00000000     192.12249756
Nd       0.00000000       0.00000000       0.94424242       0.00000000       0.00000000    -192.12249756
2
Properties=species:S:1:pos:R:3:forces:R:3 energy=17.286405944456664 pbc="F F F"
Nd       0.00000000       0.00000000       0.00000000       0.00000000       0.00000000    -554.70623779
Nd       0.00000000       0.00000000       1.00303030       0.00000000       0.00000000     554.70623779
2
Properties=species:S:1:pos:R:3:forces:R:3 energy=-5.898381159551758 pbc="F F F"
Nd       0.00000000       0.00000000       0.00000000       0.00000000       0.00000000    -225.32972717
Nd       0.00000000       0.00000000       1.06181818       0.00000000       0.00000000     225.32972717
2
Properties=species:S:1:pos:R:3:forces:R:3 energy=-11.768728287259993 pbc="F F F"
Nd       0.00000000       0.00000000       0.00000000       0.00000000       0.00000000      67.72740173
Nd       0.00000000       0.00000000       1.12060606       0.00000000       0.00000000     -67.72740173
2
Properties=species:S:1:pos:R:3:forces:R:3 energy=-1.486719942108082 pbc="F F F"
Nd       0.00000000       0.00000000       0.00000000       0.00000000       0.00000000     268.76516724
Nd       0.00000000       0.00000000       1.17939394       0.00000000       0.00000000    -268.76516724
2
Properties=species:S:1:pos:R:3:forces:R:3 energy=22.00844829365456 pbc="F F F"
Nd       0.00000000       0.00000000       0.00000000       0.00000000       0.00000000     662.72485352
Nd       0.00000000       0.00000000       1.23818182       0.00000000       0.00000000    -662.72485352
2
Properties=species:S:1:pos:R:3:forces:R:3 energy=50.81288967566914 pbc="F F F"
Nd       0.00000000       0.00000000       0.00000000       0.00000000       0.00000000     276.75155640
Nd       0.00000000       0.00000000       1.29696970       0.00000000       0.00000000    -276.75155640
2
Properties=species:S:1:pos:R:3:forces:R:3 energy=59.14703662481397 pbc="F F F"
Nd       0.00000000       0.00000000       0.00000000       0.00000000       0.00000000      38.96394730
Nd       0.00000000       0.00000000       1.35575758       0.00000000       0.00000000     -38.96394730
2
Properties=species:S:1:pos:R:3:forces:R:3 energy=56.72015968174043 pbc="F F F"
Nd       0.00000000       0.00000000       0.00000000       0.00000000       0.00000000    -117.87813568
Nd       0.00000000       0.00000000       1.41454545       0.00000000       0.00000000     117.87813568
2
Properties=species:S:1:pos:R:3:forces:R:3 energy=47.79186436820494 pbc="F F F"
Nd       0.00000000       0.00000000       0.00000000       0.00000000       0.00000000    -160.77621460
Nd       0.00000000       0.00000000       1.47333333       0.00000000       0.00000000     160.77621460
2
Properties=species:S:1:pos:R:3:forces:R:3 energy=39.116167725154966 pbc="F F F"
Nd       0.00000000       0.00000000       0.00000000       0.00000000       0.00000000    -135.99093628
Nd       0.00000000       0.00000000       1.53212121       0.00000000       0.00000000     135.99093628
2
Properties=species:S:1:pos:R:3:forces:R:3 energy=31.53345914368367 pbc="F F F"
Nd       0.00000000       0.00000000       0.00000000       0.00000000       0.00000000    -125.16297913
Nd       0.00000000       0.00000000       1.59090909       0.00000000       0.00000000     125.16297913
2
Properties=species:S:1:pos:R:3:forces:R:3 energy=24.403659290226784 pbc="F F F"
Nd       0.00000000       0.00000000       0.00000000       0.00000000       0.00000000    -112.37814331
Nd       0.00000000       0.00000000       1.64969697       0.00000000       0.00000000     112.37814331
2
Properties=species:S:1:pos:R:3:forces:R:3 energy=18.346702449556172 pbc="F F F"
Nd       0.00000000       0.00000000       0.00000000       0.00000000       0.00000000     -93.92735291
Nd       0.00000000       0.00000000       1.70848485       0.00000000       0.00000000      93.92735291
2
Properties=species:S:1:pos:R:3:forces:R:3 energy=13.61142920712886 pbc="F F F"
Nd       0.00000000       0.00000000       0.00000000       0.00000000       0.00000000     -67.02599335
Nd       0.00000000       0.00000000       1.76727273       0.00000000       0.00000000      67.02599335
2
Properties=species:S:1:pos:R:3:forces:R:3 energy=10.336013873377455 pbc="F F F"
Nd       0.00000000       0.00000000       0.00000000       0.00000000       0.00000000     -44.67497253
Nd       0.00000000       0.00000000       1.82606061       0.00000000       0.00000000      44.67497253
2
Properties=species:S:1:pos:R:3:forces:R:3 energy=8.103735357733589 pbc="F F F"
Nd       0.00000000       0.00000000       0.00000000       0.00000000       0.00000000     -32.88442230
Nd       0.00000000       0.00000000       1.88484848       0.00000000       0.00000000      32.88442230
2
Properties=species:S:1:pos:R:3:forces:R:3 energy=6.358876546731621 pbc="F F F"
Nd       0.00000000       0.00000000       0.00000000       0.00000000       0.00000000     -27.01633453
Nd       0.00000000       0.00000000       1.94363636       0.00000000       0.00000000      27.01633453
2
Properties=species:S:1:pos:R:3:forces:R:3 energy=4.87893413305826 pbc="F F F"
Nd       0.00000000       0.00000000       0.00000000       0.00000000       0.00000000     -23.57471275
Nd       0.00000000       0.00000000       2.00242424       0.00000000       0.00000000      23.57471275
2
Properties=species:S:1:pos:R:3:forces:R:3 energy=3.5572743821800907 pbc="F F F"
Nd       0.00000000       0.00000000       0.00000000       0.00000000       0.00000000     -21.47453690
Nd       0.00000000       0.00000000       2.06121212       0.00000000       0.00000000      21.47453690
2
Properties=species:S:1:pos:R:3:forces:R:3 energy=2.38362094315862 pbc="F F F"
Nd       0.00000000       0.00000000       0.00000000       0.00000000       0.00000000     -18.17464066
Nd       0.00000000       0.00000000       2.12000000       0.00000000       0.00000000      18.17464066
2
Properties=species:S:1:pos:R:3:forces:R:3 energy=1.4145748808528147 pbc="F F F"
Nd       0.00000000       0.00000000       0.00000000       0.00000000       0.00000000     -15.04890060
Nd       0.00000000       0.00000000       2.17878788       0.00000000       0.00000000      15.04890060
2
Properties=species:S:1:pos:R:3:forces:R:3 energy=0.600719269743122 pbc="F F F"
Nd       0.00000000       0.00000000       0.00000000       0.00000000       0.00000000     -12.63255501
Nd       0.00000000       0.00000000       2.23757576       0.00000000       0.00000000      12.63255501
2
Properties=species:S:1:pos:R:3:forces:R:3 energy=-0.07632642606559714 pbc="F F F"
Nd       0.00000000       0.00000000       0.00000000       0.00000000       0.00000000     -10.46482754
Nd       0.00000000       0.00000000       2.29636364       0.00000000       0.00000000      10.46482754
2
Properties=species:S:1:pos:R:3:forces:R:3 energy=-0.6321808129491487 pbc="F F F"
Nd       0.00000000       0.00000000       0.00000000       0.00000000       0.00000000      -8.46415615
Nd       0.00000000       0.00000000       2.35515152       0.00000000       0.00000000       8.46415615
2
Properties=species:S:1:pos:R:3:forces:R:3 energy=-1.0787192622350015 pbc="F F F"
Nd       0.00000000       0.00000000       0.00000000       0.00000000       0.00000000      -6.80796719
Nd       0.00000000       0.00000000       2.41393939       0.00000000       0.00000000       6.80796719
2
Properties=species:S:1:pos:R:3:forces:R:3 energy=-1.4404275047087325 pbc="F F F"
Nd       0.00000000       0.00000000       0.00000000       0.00000000       0.00000000      -5.54485655
Nd       0.00000000       0.00000000       2.47272727       0.00000000       0.00000000       5.54485655
2
Properties=species:S:1:pos:R:3:forces:R:3 energy=-1.7337879982787716 pbc="F F F"
Nd       0.00000000       0.00000000       0.00000000       0.00000000       0.00000000      -4.45509863
Nd       0.00000000       0.00000000       2.53151515       0.00000000       0.00000000       4.45509863
2
Properties=species:S:1:pos:R:3:forces:R:3 energy=-1.9690031034245508 pbc="F F F"
Nd       0.00000000       0.00000000       0.00000000       0.00000000       0.00000000      -3.60821509
Nd       0.00000000       0.00000000       2.59030303       0.00000000       0.00000000       3.60821509
2
Properties=species:S:1:pos:R:3:forces:R:3 energy=-2.165110973167005 pbc="F F F"
Nd       0.00000000       0.00000000       0.00000000       0.00000000       0.00000000      -3.11021757
Nd       0.00000000       0.00000000       2.64909091       0.00000000       0.00000000       3.11021757
2
Properties=species:S:1:pos:R:3:forces:R:3 energy=-2.3377850454833267 pbc="F F F"
Nd       0.00000000       0.00000000       0.00000000       0.00000000       0.00000000      -2.77180338
Nd       0.00000000       0.00000000       2.70787879       0.00000000       0.00000000       2.77180338
2
Properties=species:S:1:pos:R:3:forces:R:3 energy=-2.4907367833861564 pbc="F F F"
Nd       0.00000000       0.00000000       0.00000000       0.00000000       0.00000000      -2.42701674
Nd       0.00000000       0.00000000       2.76666667       0.00000000       0.00000000       2.42701674
2
Properties=species:S:1:pos:R:3:forces:R:3 energy=-2.623017845122713 pbc="F F F"
Nd       0.00000000       0.00000000       0.00000000       0.00000000       0.00000000      -2.07656240
Nd       0.00000000       0.00000000       2.82545455       0.00000000       0.00000000       2.07656240
2
Properties=species:S:1:pos:R:3:forces:R:3 energy=-2.735603361337385 pbc="F F F"
Nd       0.00000000       0.00000000       0.00000000       0.00000000       0.00000000      -1.76092649
Nd       0.00000000       0.00000000       2.88424242       0.00000000       0.00000000       1.76092649
2
Properties=species:S:1:pos:R:3:forces:R:3 energy=-2.8308464206914605 pbc="F F F"
Nd       0.00000000       0.00000000       0.00000000       0.00000000       0.00000000      -1.48451972
Nd       0.00000000       0.00000000       2.94303030       0.00000000       0.00000000       1.48451972
2
Properties=species:S:1:pos:R:3:forces:R:3 energy=-2.9105135514564817 pbc="F F F"
Nd       0.00000000       0.00000000       0.00000000       0.00000000       0.00000000      -1.22681856
Nd       0.00000000       0.00000000       3.00181818       0.00000000       0.00000000       1.22681856
2
Properties=species:S:1:pos:R:3:forces:R:3 energy=-2.9751379275871077 pbc="F F F"
Nd       0.00000000       0.00000000       0.00000000       0.00000000       0.00000000      -0.97258139
Nd       0.00000000       0.00000000       3.06060606       0.00000000       0.00000000       0.97258139
2
Properties=species:S:1:pos:R:3:forces:R:3 energy=-3.0251192086336993 pbc="F F F"
Nd       0.00000000       0.00000000       0.00000000       0.00000000       0.00000000      -0.73163670
Nd       0.00000000       0.00000000       3.11939394       0.00000000       0.00000000       0.73163670
2
Properties=species:S:1:pos:R:3:forces:R:3 energy=-3.0617619136748466 pbc="F F F"
Nd       0.00000000       0.00000000       0.00000000       0.00000000       0.00000000      -0.52078229
Nd       0.00000000       0.00000000       3.17818182       0.00000000       0.00000000       0.52078229
2
Properties=species:S:1:pos:R:3:forces:R:3 energy=-3.087052388240217 pbc="F F F"
Nd       0.00000000       0.00000000       0.00000000       0.00000000       0.00000000      -0.34551433
Nd       0.00000000       0.00000000       3.23696970       0.00000000       0.00000000       0.34551433
2
Properties=species:S:1:pos:R:3:forces:R:3 energy=-3.1030196271066544 pbc="F F F"
Nd       0.00000000       0.00000000       0.00000000       0.00000000       0.00000000      -0.20268887
Nd       0.00000000       0.00000000       3.29575758       0.00000000       0.00000000       0.20268887
2
Properties=species:S:1:pos:R:3:forces:R:3 energy=-3.1114217562025663 pbc="F F F"
Nd       0.00000000       0.00000000       0.00000000       0.00000000       0.00000000      -0.08736653
Nd       0.00000000       0.00000000       3.35454545       0.00000000       0.00000000       0.08736653
2
Properties=species:S:1:pos:R:3:forces:R:3 energy=-3.1137630973753114 pbc="F F F"
Nd       0.00000000       0.00000000       0.00000000       0.00000000       0.00000000       0.00395442
Nd       0.00000000       0.00000000       3.41333333       0.00000000       0.00000000      -0.00395442
2
Properties=species:S:1:pos:R:3:forces:R:3 energy=-3.111336066704676 pbc="F F F"
Nd       0.00000000       0.00000000       0.00000000       0.00000000       0.00000000       0.07614694
Nd       0.00000000       0.00000000       3.47212121       0.00000000       0.00000000      -0.07614694
2
Properties=species:S:1:pos:R:3:forces:R:3 energy=-3.10503342737543 pbc="F F F"
Nd       0.00000000       0.00000000       0.00000000       0.00000000       0.00000000       0.13711803
Nd       0.00000000       0.00000000       3.53090909       0.00000000       0.00000000      -0.13711803
2
Properties=species:S:1:pos:R:3:forces:R:3 energy=-3.0952909425054553 pbc="F F F"
Nd       0.00000000       0.00000000       0.00000000       0.00000000       0.00000000       0.19381955
Nd       0.00000000       0.00000000       3.58969697       0.00000000       0.00000000      -0.19381955
2
Properties=species:S:1:pos:R:3:forces:R:3 energy=-3.0822725146760153 pbc="F F F"
Nd       0.00000000       0.00000000       0.00000000       0.00000000       0.00000000       0.24886890
Nd       0.00000000       0.00000000       3.64848485       0.00000000       0.00000000      -0.24886890
2
Properties=species:S:1:pos:R:3:forces:R:3 energy=-3.0660790532783366 pbc="F F F"
Nd       0.00000000       0.00000000       0.00000000       0.00000000       0.00000000       0.30156627
Nd       0.00000000       0.00000000       3.70727273       0.00000000       0.00000000      -0.30156627
2
Properties=species:S:1:pos:R:3:forces:R:3 energy=-3.04688764760736 pbc="F F F"
Nd       0.00000000       0.00000000       0.00000000       0.00000000       0.00000000       0.35061160
Nd       0.00000000       0.00000000       3.76606061       0.00000000       0.00000000      -0.35061160
2
Properties=species:S:1:pos:R:3:forces:R:3 energy=-3.0249344767517794 pbc="F F F"
Nd       0.00000000       0.00000000       0.00000000       0.00000000       0.00000000       0.39555579
Nd       0.00000000       0.00000000       3.82484848       0.00000000       0.00000000      -0.39555579
2
Properties=species:S:1:pos:R:3:forces:R:3 energy=-3.0004537617664995 pbc="F F F"
Nd       0.00000000       0.00000000       0.00000000       0.00000000       0.00000000       0.43668237
Nd       0.00000000       0.00000000       3.88363636       0.00000000       0.00000000      -0.43668237
2
Properties=species:S:1:pos:R:3:forces:R:3 energy=-2.9736597345596474 pbc="F F F"
Nd       0.00000000       0.00000000       0.00000000       0.00000000       0.00000000       0.47436669
Nd       0.00000000       0.00000000       3.94242424       0.00000000       0.00000000      -0.47436669
2
Properties=species:S:1:pos:R:3:forces:R:3 energy=-2.944745532162792 pbc="F F F"
Nd       0.00000000       0.00000000       0.00000000       0.00000000       0.00000000       0.50873035
Nd       0.00000000       0.00000000       4.00121212       0.00000000       0.00000000      -0.50873035
2
Properties=species:S:1:pos:R:3:forces:R:3 energy=-2.9139120477149185 pbc="F F F"
Nd       0.00000000       0.00000000       0.00000000       0.00000000       0.00000000       0.53968340
Nd       0.00000000       0.00000000       4.06000000       0.00000000       0.00000000      -0.53968340
2
Properties=species:S:1:pos:R:3:forces:R:3 energy=-2.8813611660431957 pbc="F F F"
Nd       0.00000000       0.00000000       0.00000000       0.00000000       0.00000000       0.56706315
Nd       0.00000000       0.00000000       4.11878788       0.00000000       0.00000000      -0.56706315
2
Properties=species:S:1:pos:R:3:forces:R:3 energy=-2.8473138961462734 pbc="F F F"
Nd       0.00000000       0.00000000       0.00000000       0.00000000       0.00000000       0.59061289
Nd       0.00000000       0.00000000       4.17757576       0.00000000       0.00000000      -0.59061289
2
Properties=species:S:1:pos:R:3:forces:R:3 energy=-2.8120029191977944 pbc="F F F"
Nd       0.00000000       0.00000000       0.00000000       0.00000000       0.00000000       0.60990202
Nd       0.00000000       0.00000000       4.23636364       0.00000000       0.00000000      -0.60990202
2
Properties=species:S:1:pos:R:3:forces:R:3 energy=-2.7756982110400483 pbc="F F F"
Nd       0.00000000       0.00000000       0.00000000       0.00000000       0.00000000       0.62433088
Nd       0.00000000       0.00000000       4.29515152       0.00000000       0.00000000      -0.62433088
2
Properties=species:S:1:pos:R:3:forces:R:3 energy=-2.7387072956097467 pbc="F F F"
Nd       0.00000000       0.00000000       0.00000000       0.00000000       0.00000000       0.63331890
Nd       0.00000000       0.00000000       4.35393939       0.00000000       0.00000000      -0.63331890
2
Properties=species:S:1:pos:R:3:forces:R:3 energy=-2.7013493310047263 pbc="F F F"
Nd       0.00000000       0.00000000       0.00000000       0.00000000       0.00000000       0.63650465
Nd       0.00000000       0.00000000       4.41272727       0.00000000       0.00000000      -0.63650465
2
Properties=species:S:1:pos:R:3:forces:R:3 energy=-2.663978162394295 pbc="F F F"
Nd       0.00000000       0.00000000       0.00000000       0.00000000       0.00000000       0.63390511
Nd       0.00000000       0.00000000       4.47151515       0.00000000       0.00000000      -0.63390511
2
Properties=species:S:1:pos:R:3:forces:R:3 energy=-2.626923295581923 pbc="F F F"
Nd       0.00000000       0.00000000       0.00000000       0.00000000       0.00000000       0.62591946
Nd       0.00000000       0.00000000       4.53030303       0.00000000       0.00000000      -0.62591946
2
Properties=species:S:1:pos:R:3:forces:R:3 energy=-2.5904802842343493 pbc="F F F"
Nd       0.00000000       0.00000000       0.00000000       0.00000000       0.00000000       0.61322731
Nd       0.00000000       0.00000000       4.58909091       0.00000000       0.00000000      -0.61322731
2
Properties=species:S:1:pos:R:3:forces:R:3 energy=-2.554897530496611 pbc="F F F"
Nd       0.00000000       0.00000000       0.00000000       0.00000000       0.00000000       0.59671420
Nd       0.00000000       0.00000000       4.64787879       0.00000000       0.00000000      -0.59671420
2
Properties=species:S:1:pos:R:3:forces:R:3 energy=-2.5203762596494705 pbc="F F F"
Nd       0.00000000       0.00000000       0.00000000       0.00000000       0.00000000       0.57737565
Nd       0.00000000       0.00000000       4.70666667       0.00000000       0.00000000      -0.57737565
2
Properties=species:S:1:pos:R:3:forces:R:3 energy=-2.487046817635677 pbc="F F F"
Nd       0.00000000       0.00000000       0.00000000       0.00000000       0.00000000       0.55631143
Nd       0.00000000       0.00000000       4.76545455       0.00000000       0.00000000      -0.55631143
2
Properties=species:S:1:pos:R:3:forces:R:3 energy=-2.4549781571179774 pbc="F F F"
Nd       0.00000000       0.00000000       0.00000000       0.00000000       0.00000000       0.53465104
Nd       0.00000000       0.00000000       4.82424242       0.00000000       0.00000000      -0.53465104
2
Properties=species:S:1:pos:R:3:forces:R:3 energy=-2.42417697250382 pbc="F F F"
Nd       0.00000000       0.00000000       0.00000000       0.00000000       0.00000000       0.51345974
Nd       0.00000000       0.00000000       4.88303030       0.00000000       0.00000000      -0.51345974
2
Properties=species:S:1:pos:R:3:forces:R:3 energy=-2.394582906231194 pbc="F F F"
Nd       0.00000000       0.00000000       0.00000000       0.00000000       0.00000000       0.49355373
Nd       0.00000000       0.00000000       4.94181818       0.00000000       0.00000000      -0.49355373
2
Properties=species:S:1:pos:R:3:forces:R:3 energy=-2.3661124177871864 pbc="F F F"
Nd       0.00000000       0.00000000       0.00000000       0.00000000       0.00000000       0.47526446
Nd       0.00000000       0.00000000       5.00060606       0.00000000       0.00000000      -0.47526446
2
Properties=species:S:1:pos:R:3:forces:R:3 energy=-2.3386750975416684 pbc="F F F"
Nd       0.00000000       0.00000000       0.00000000       0.00000000       0.00000000       0.45830086
Nd       0.00000000       0.00000000       5.05939394       0.00000000       0.00000000      -0.45830086
2
Properties=species:S:1:pos:R:3:forces:R:3 energy=-2.3122212490928056 pbc="F F F"
Nd       0.00000000       0.00000000       0.00000000       0.00000000       0.00000000       0.44170275
Nd       0.00000000       0.00000000       5.11818182       0.00000000       0.00000000      -0.44170275
2
Properties=species:S:1:pos:R:3:forces:R:3 energy=-2.2867656677685284 pbc="F F F"
Nd       0.00000000       0.00000000       0.00000000       0.00000000       0.00000000       0.42396784
Nd       0.00000000       0.00000000       5.17696970       0.00000000       0.00000000      -0.42396784
2
Properties=species:S:1:pos:R:3:forces:R:3 energy=-2.262432533011488 pbc="F F F"
Nd       0.00000000       0.00000000       0.00000000       0.00000000       0.00000000       0.40336967
Nd       0.00000000       0.00000000       5.23575758       0.00000000       0.00000000      -0.40336967
2
Properties=species:S:1:pos:R:3:forces:R:3 energy=-2.2394295007814056 pbc="F F F"
Nd       0.00000000       0.00000000       0.00000000       0.00000000       0.00000000       0.37834671
Nd       0.00000000       0.00000000       5.29454545       0.00000000       0.00000000      -0.37834671
2
Properties=species:S:1:pos:R:3:forces:R:3 energy=-2.218048707914546 pbc="F F F"
Nd       0.00000000       0.00000000       0.00000000       0.00000000       0.00000000       0.34790334
Nd       0.00000000       0.00000000       5.35333333       0.00000000       0.00000000      -0.34790334
2
Properties=species:S:1:pos:R:3:forces:R:3 energy=-2.1986302917452076 pbc="F F F"
Nd       0.00000000       0.00000000       0.00000000       0.00000000       0.00000000       0.31193602
Nd       0.00000000       0.00000000       5.41212121       0.00000000       0.00000000      -0.31193602
2
Properties=species:S:1:pos:R:3:forces:R:3 energy=-2.1814642440145104 pbc="F F F"
Nd       0.00000000       0.00000000       0.00000000       0.00000000       0.00000000       0.27137658
Nd       0.00000000       0.00000000       5.47090909       0.00000000       0.00000000      -0.27137658
2
Properties=species:S:1:pos:R:3:forces:R:3 energy=-2.1667778040280212 pbc="F F F"
Nd       0.00000000       0.00000000       0.00000000       0.00000000       0.00000000       0.22811209
Nd       0.00000000       0.00000000       5.52969697       0.00000000       0.00000000      -0.22811209
2
Properties=species:S:1:pos:R:3:forces:R:3 energy=-2.1546466972522387 pbc="F F F"
Nd       0.00000000       0.00000000       0.00000000       0.00000000       0.00000000       0.18471418
Nd       0.00000000       0.00000000       5.58848485       0.00000000       0.00000000      -0.18471418
2
Properties=species:S:1:pos:R:3:forces:R:3 energy=-2.145004653050826 pbc="F F F"
Nd       0.00000000       0.00000000       0.00000000       0.00000000       0.00000000       0.14405943
Nd       0.00000000       0.00000000       5.64727273       0.00000000       0.00000000      -0.14405943
2
Properties=species:S:1:pos:R:3:forces:R:3 energy=-2.1376030969375504 pbc="F F F"
Nd       0.00000000       0.00000000       0.00000000       0.00000000       0.00000000       0.10885058
Nd       0.00000000       0.00000000       5.70606061       0.00000000       0.00000000      -0.10885058
2
Properties=species:S:1:pos:R:3:forces:R:3 energy=-2.13205691427218 pbc="F F F"
Nd       0.00000000       0.00000000       0.00000000       0.00000000       0.00000000       0.08105955
Nd       0.00000000       0.00000000       5.76484848       0.00000000       0.00000000      -0.08105955
2
Properties=species:S:1:pos:R:3:forces:R:3 energy=-2.1279064961118515 pbc="F F F"
Nd       0.00000000       0.00000000       0.00000000       0.00000000       0.00000000       0.06168881
Nd       0.00000000       0.00000000       5.82363636       0.00000000       0.00000000      -0.06168881
2
Properties=species:S:1:pos:R:3:forces:R:3 energy=-2.124648811317919 pbc="F F F"
Nd       0.00000000       0.00000000       0.00000000       0.00000000       0.00000000       0.05039182
Nd       0.00000000       0.00000000       5.88242424       0.00000000       0.00000000      -0.05039182
2
Properties=species:S:1:pos:R:3:forces:R:3 energy=-2.1218539575631743 pbc="F F F"
Nd       0.00000000       0.00000000       0.00000000       0.00000000       0.00000000       0.04548794
Nd       0.00000000       0.00000000       5.94121212       0.00000000       0.00000000      -0.04548794
2
Properties=species:S:1:pos:R:3:forces:R:3 energy=-2.1192260127544102 pbc="F F F"
Nd       0.00000000       0.00000000       0.00000000       0.00000000       0.00000000       0.04415693
Nd       0.00000000       0.00000000       6.00000000       0.00000000       0.00000000      -0.04415693
