2
Properties=species:S:1:pos:R:3:forces:R:3 energy=98.50630260976511 pbc="F F F"
Nd       0.00000000       0.00000000       0.00000000       0.00000000       0.00000000    -430.79754639
Nd       0.00000000       0.00000000       0.18000000       0.00000000       0.00000000     430.79754639
2
Properties=species:S:1:pos:R:3:forces:R:3 energy=70.29875256093699 pbc="F F F"
Nd       0.00000000       0.00000000       0.00000000       0.00000000       0.00000000    -522.74438477
Nd       0.00000000       0.00000000       0.23878788       0.00000000       0.00000000     522.74438477
2
Properties=species:S:1:pos:R:3:forces:R:3 energy=38.06263805898387 pbc="F F F"
Nd       0.00000000       0.00000000       0.00000000       0.00000000       0.00000000    -562.89654541
Nd       0.00000000       0.00000000       0.29757576       0.00000000       0.00000000     562.89654541
2
Properties=species:S:1:pos:R:3:forces:R:3 energy=6.441918149315901 pbc="F F F"
Nd       0.00000000       0.00000000       0.00000000       0.00000000       0.00000000    -457.33639526
Nd       0.00000000       0.00000000       0.35636364       0.00000000       0.00000000     457.33639526
2
Properties=species:S:1:pos:R:3:forces:R:3 energy=-3054.846289845825 pbc="F F F"
Nd       0.00000000       0.00000000       0.00000000       0.00000000       0.00000000  -13064.62011719
Nd       0.00000000       0.00000000       0.41515152       0.00000000       0.00000000   13064.62011719
2
Properties=species:S:1:pos:R:3:forces:R:3 energy=-2499.699317176904 pbc="F F F"
Nd       0.00000000       0.00000000       0.00000000       0.00000000       0.00000000   23517.33789062
Nd       0.00000000       0.00000000       0.47393939       0.00000000       0.00000000  -23517.33789062
2
Properties=species:S:1:pos:R:3:forces:R:3 energy=-1608.2243415782953 pbc="F F F"
Nd       0.00000000       0.00000000       0.00000000       0.00000000       0.00000000   13248.87792969
Nd       0.00000000       0.00000000       0.53272727       0.00000000       0.00000000  -13248.87792969
2
Properties=species:S:1:pos:R:3:forces:R:3 energy=-830.6854621457501 pbc="F F F"
Nd       0.00000000       0.00000000       0.00000000       0.00000000       0.00000000   17043.91406250
Nd       0.00000000       0.00000000       0.59151515       0.00000000       0.00000000  -17043.91406250
2
Properties=species:S:1:pos:R:3:forces:R:3 energy=-217.3747015970181 pbc="F F F"
Nd       0.00000000       0.00000000       0.00000000       0.00000000       0.00000000    5400.94384766
Nd       0.00000000       0.00000000       0.65030303       0.00000000       0.00000000   -5400.94384766
2
Properties=species:S:1:pos:R:3:forces:R:3 energy=-56.90614225585364 pbc="F F F"
Nd       0.00000000       0.00000000       0.00000000       0.00000000       0.00000000    1309.22180176
Nd       0.00000000       0.00000000       0.70909091       0.00000000       0.00000000   -1309.22180176
2
Properties=species:S:1:pos:R:3:forces:R:3 energy=-14.141816058902274 pbc="F F F"
Nd       0.00000000       0.00000000       0.00000000       0.00000000       0.00000000     224.93365479
Nd       0.00000000       0.00000000       0.76787879       0.00000000       0.00000000    -224.93365479
2
Properties=species:S:1:pos:R:3:forces:R:3 energy=-11.357896547092613 pbc="F F F"
Nd       0.00000000       0.00000000       0.00000000       0.00000000       0.00000000      44.93616486
Nd       0.00000000       0.00000000       0.82666667       0.00000000       0.00000000     -44.93616486
2
Properties=species:S:1:pos:R:3:forces:R:3 energy=2.131839309665679 pbc="F F F"
Nd       0.00000000       0.00000000       0.00000000       0.00000000       0.00000000     160.78288269
Nd       0.00000000       0.00000000       0.88545455       0.00000000       0.00000000    -160.78288269
2
Properties=species:S:1:pos:R:3:forces:R:3 energy=17.065889270785 pbc="F F F"
Nd       0.00000000       0.00000000       0.00000000       0.00000000       0.00000000     192.12136841
Nd       0.00000000       0.00000000       0.94424242       0.00000000       0.00000000    -192.12136841
2
Properties=species:S:1:pos:R:3:forces:R:3 energy=17.28646316491565 pbc="F F F"
Nd       0.00000000       0.00000000       0.00000000       0.00000000       0.00000000    -554.70532227
Nd       0.00000000       0.00000000       1.00303030       0.00000000       0.00000000     554.70532227
2
Properties=species:S:1:pos:R:3:forces:R:3 energy=-5.8983420589047855 pbc="F F F"
Nd       0.00000000       0.00000000       0.00000000       0.00000000       0.00000000    -225.32984924
Nd       0.00000000       0.00000000       1.06181818       0.00000000       0.00000000     225.32984924
2
Properties=species:S:1:pos:R:3:forces:R:3 energy=-11.768683464567122 pbc="F F F"
Nd       0.00000000       0.00000000       0.00000000       0.00000000       0.00000000      67.72689056
Nd       0.00000000       0.00000000       1.12060606       0.00000000       0.00000000     -67.72689056
2
Properties=species:S:1:pos:R:3:forces:R:3 energy=-1.4866865635070077 pbc="F F F"
Nd       0.00000000       0.00000000       0.00000000       0.00000000       0.00000000     268.76431274
Nd       0.00000000       0.00000000       1.17939394       0.00000000       0.00000000    -268.76431274
2
Properties=species:S:1:pos:R:3:forces:R:3 energy=22.008505514113544 pbc="F F F"
Nd       0.00000000       0.00000000       0.00000000       0.00000000       0.00000000     662.72412109
Nd       0.00000000       0.00000000       1.23818182       0.00000000       0.00000000    -662.72412109
2
Properties=species:S:1:pos:R:3:forces:R:3 energy=50.81288967566914 pbc="F F F"
Nd       0.00000000       0.00000000       0.00000000       0.00000000       0.00000000     276.75198364
Nd       0.00000000       0.00000000       1.29696970       0.00000000       0.00000000    -276.75198364
2
Properties=species:S:1:pos:R:3:forces:R:3 energy=59.147006107235846 pbc="F F F"
Nd       0.00000000       0.00000000       0.00000000       0.00000000       0.00000000      38.96372604
Nd       0.00000000       0.00000000       1.35575758       0.00000000       0.00000000     -38.96372604
2
Properties=species:S:1:pos:R:3:forces:R:3 energy=56.72019019931855 pbc="F F F"
Nd       0.00000000       0.00000000       0.00000000       0.00000000       0.00000000    -117.87809753
Nd       0.00000000       0.00000000       1.41454545       0.00000000       0.00000000     117.87809753
2
Properties=species:S:1:pos:R:3:forces:R:3 energy=47.79184910941588 pbc="F F F"
Nd       0.00000000       0.00000000       0.00000000       0.00000000       0.00000000    -160.77613831
Nd       0.00000000       0.00000000       1.47333333       0.00000000       0.00000000     160.77613831
2
Properties=species:S:1:pos:R:3:forces:R:3 energy=39.11617916924676 pbc="F F F"
Nd       0.00000000       0.00000000       0.00000000       0.00000000       0.00000000    -135.99096680
Nd       0.00000000       0.00000000       1.53212121       0.00000000       0.00000000     135.99096680
2
Properties=species:S:1:pos:R:3:forces:R:3 energy=31.533474402472734 pbc="F F F"
Nd       0.00000000       0.00000000       0.00000000       0.00000000       0.00000000    -125.16300964
Nd       0.00000000       0.00000000       1.59090909       0.00000000       0.00000000     125.16300964
2
Properties=species:S:1:pos:R:3:forces:R:3 energy=24.403674549015847 pbc="F F F"
Nd       0.00000000       0.00000000       0.00000000       0.00000000       0.00000000    -112.37818146
Nd       0.00000000       0.00000000       1.64969697       0.00000000       0.00000000     112.37818146
2
Properties=species:S:1:pos:R:3:forces:R:3 energy=18.346710078950704 pbc="F F F"
Nd       0.00000000       0.00000000       0.00000000       0.00000000       0.00000000     -93.92739868
Nd       0.00000000       0.00000000       1.70848485       0.00000000       0.00000000      93.92739868
2
Properties=species:S:1:pos:R:3:forces:R:3 energy=13.61142920712886 pbc="F F F"
Nd       0.00000000       0.00000000       0.00000000       0.00000000       0.00000000     -67.02595520
Nd       0.00000000       0.00000000       1.76727273       0.00000000       0.00000000      67.02595520
2
Properties=species:S:1:pos:R:3:forces:R:3 energy=10.336008151331557 pbc="F F F"
Nd       0.00000000       0.00000000       0.00000000       0.00000000       0.00000000     -44.67495728
Nd       0.00000000       0.00000000       1.82606061       0.00000000       0.00000000      44.67495728
2
Properties=species:S:1:pos:R:3:forces:R:3 energy=8.103739172430855 pbc="F F F"
Nd       0.00000000       0.00000000       0.00000000       0.00000000       0.00000000     -32.88440323
Nd       0.00000000       0.00000000       1.88484848       0.00000000       0.00000000      32.88440323
2
Properties=species:S:1:pos:R:3:forces:R:3 energy=6.358876546731621 pbc="F F F"
Nd       0.00000000       0.00000000       0.00000000       0.00000000       0.00000000     -27.01632690
Nd       0.00000000       0.00000000       1.94363636       0.00000000       0.00000000      27.01632690
2
Properties=species:S:1:pos:R:3:forces:R:3 energy=4.878930318360994 pbc="F F F"
Nd       0.00000000       0.00000000       0.00000000       0.00000000       0.00000000     -23.57471275
Nd       0.00000000       0.00000000       2.00242424       0.00000000       0.00000000      23.57471275
2
Properties=species:S:1:pos:R:3:forces:R:3 energy=3.557272474831458 pbc="F F F"
Nd       0.00000000       0.00000000       0.00000000       0.00000000       0.00000000     -21.47453499
Nd       0.00000000       0.00000000       2.06121212       0.00000000       0.00000000      21.47453499
2
Properties=species:S:1:pos:R:3:forces:R:3 energy=2.3836190358099874 pbc="F F F"
Nd       0.00000000       0.00000000       0.00000000       0.00000000       0.00000000     -18.17463875
Nd       0.00000000       0.00000000       2.12000000       0.00000000       0.00000000      18.17463875
2
Properties=species:S:1:pos:R:3:forces:R:3 energy=1.4145767882014475 pbc="F F F"
Nd       0.00000000       0.00000000       0.00000000       0.00000000       0.00000000     -15.04889965
Nd       0.00000000       0.00000000       2.17878788       0.00000000       0.00000000      15.04889965
2
Properties=species:S:1:pos:R:3:forces:R:3 energy=0.6007173623944891 pbc="F F F"
Nd       0.00000000       0.00000000       0.00000000       0.00000000       0.00000000     -12.63255119
Nd       0.00000000       0.00000000       2.23757576       0.00000000       0.00000000      12.63255119
2
Properties=species:S:1:pos:R:3:forces:R:3 energy=-0.07632642606559714 pbc="F F F"
Nd       0.00000000       0.00000000       0.00000000       0.00000000       0.00000000     -10.46482944
Nd       0.00000000       0.00000000       2.29636364       0.00000000       0.00000000      10.46482944
2
Properties=species:S:1:pos:R:3:forces:R:3 energy=-0.6321808129491487 pbc="F F F"
Nd       0.00000000       0.00000000       0.00000000       0.00000000       0.00000000      -8.46416092
Nd       0.00000000       0.00000000       2.35515152       0.00000000       0.00000000       8.46416092
2
Properties=species:S:1:pos:R:3:forces:R:3 energy=-1.0787192622350015 pbc="F F F"
Nd       0.00000000       0.00000000       0.00000000       0.00000000       0.00000000      -6.80797052
Nd       0.00000000       0.00000000       2.41393939       0.00000000       0.00000000       6.80797052
2
Properties=species:S:1:pos:R:3:forces:R:3 energy=-1.4404275047087325 pbc="F F F"
Nd       0.00000000       0.00000000       0.00000000       0.00000000       0.00000000      -5.54485607
Nd       0.00000000       0.00000000       2.47272727       0.00000000       0.00000000       5.54485607
2
Properties=species:S:1:pos:R:3:forces:R:3 energy=-1.7337899056274044 pbc="F F F"
Nd       0.00000000       0.00000000       0.00000000       0.00000000       0.00000000      -4.45510006
Nd       0.00000000       0.00000000       2.53151515       0.00000000       0.00000000       4.45510006
2
Properties=species:S:1:pos:R:3:forces:R:3 energy=-1.9690031034245508 pbc="F F F"
Nd       0.00000000       0.00000000       0.00000000       0.00000000       0.00000000      -3.60821581
Nd       0.00000000       0.00000000       2.59030303       0.00000000       0.00000000       3.60821581
2
Properties=species:S:1:pos:R:3:forces:R:3 energy=-2.1651090658183723 pbc="F F F"
Nd       0.00000000       0.00000000       0.00000000       0.00000000       0.00000000      -3.11021829
Nd       0.00000000       0.00000000       2.64909091       0.00000000       0.00000000       3.11021829
2
Properties=species:S:1:pos:R:3:forces:R:3 energy=-2.3377840918090103 pbc="F F F"
Nd       0.00000000       0.00000000       0.00000000       0.00000000       0.00000000      -2.77180243
Nd       0.00000000       0.00000000       2.70787879       0.00000000       0.00000000       2.77180243
2
Properties=species:S:1:pos:R:3:forces:R:3 energy=-2.4907396444091057 pbc="F F F"
Nd       0.00000000       0.00000000       0.00000000       0.00000000       0.00000000      -2.42701745
Nd       0.00000000       0.00000000       2.76666667       0.00000000       0.00000000       2.42701745
2
Properties=species:S:1:pos:R:3:forces:R:3 energy=-2.623019752471346 pbc="F F F"
Nd       0.00000000       0.00000000       0.00000000       0.00000000       0.00000000      -2.07656240
Nd       0.00000000       0.00000000       2.82545455       0.00000000       0.00000000       2.07656240
2
Properties=species:S:1:pos:R:3:forces:R:3 energy=-2.7356024076630687 pbc="F F F"
Nd       0.00000000       0.00000000       0.00000000       0.00000000       0.00000000      -1.76092744
Nd       0.00000000       0.00000000       2.88424242       0.00000000       0.00000000       1.76092744
2
Properties=species:S:1:pos:R:3:forces:R:3 energy=-2.8308464206914605 pbc="F F F"
Nd       0.00000000       0.00000000       0.00000000       0.00000000       0.00000000      -1.48452055
Nd       0.00000000       0.00000000       2.94303030       0.00000000       0.00000000       1.48452055
2
Properties=species:S:1:pos:R:3:forces:R:3 energy=-2.9105135514564817 pbc="F F F"
Nd       0.00000000       0.00000000       0.00000000       0.00000000       0.00000000      -1.22681880
Nd       0.00000000       0.00000000       3.00181818       0.00000000       0.00000000       1.22681880
2
Properties=species:S:1:pos:R:3:forces:R:3 energy=-2.975138881261424 pbc="F F F"
Nd       0.00000000       0.00000000       0.00000000       0.00000000       0.00000000      -0.97258127
Nd       0.00000000       0.00000000       3.06060606       0.00000000       0.00000000       0.97258127
2
Properties=species:S:1:pos:R:3:forces:R:3 energy=-3.025123023330965 pbc="F F F"
Nd       0.00000000       0.00000000       0.00000000       0.00000000       0.00000000      -0.73163670
Nd       0.00000000       0.00000000       3.11939394       0.00000000       0.00000000       0.73163670
2
Properties=species:S:1:pos:R:3:forces:R:3 energy=-3.0617619136748466 pbc="F F F"
Nd       0.00000000       0.00000000       0.00000000       0.00000000       0.00000000      -0.52078253
Nd       0.00000000       0.00000000       3.17818182       0.00000000       0.00000000       0.52078253
2
Properties=species:S:1:pos:R:3:forces:R:3 energy=-3.0870552492631664 pbc="F F F"
Nd       0.00000000       0.00000000       0.00000000       0.00000000       0.00000000      -0.34551406
Nd       0.00000000       0.00000000       3.23696970       0.00000000       0.00000000       0.34551406
2
Properties=species:S:1:pos:R:3:forces:R:3 energy=-3.1030205807809708 pbc="F F F"
Nd       0.00000000       0.00000000       0.00000000       0.00000000       0.00000000      -0.20268854
Nd       0.00000000       0.00000000       3.29575758       0.00000000       0.00000000       0.20268854
2
Properties=species:S:1:pos:R:3:forces:R:3 energy=-3.1114217562025663 pbc="F F F"
Nd       0.00000000       0.00000000       0.00000000       0.00000000       0.00000000      -0.08736612
Nd       0.00000000       0.00000000       3.35454545       0.00000000       0.00000000       0.08736612
2
Properties=species:S:1:pos:R:3:forces:R:3 energy=-3.1137630973753114 pbc="F F F"
Nd       0.00000000       0.00000000       0.00000000       0.00000000       0.00000000       0.00395472
Nd       0.00000000       0.00000000       3.41333333       0.00000000       0.00000000      -0.00395472
2
Properties=species:S:1:pos:R:3:forces:R:3 energy=-3.111336066704676 pbc="F F F"
Nd       0.00000000       0.00000000       0.00000000       0.00000000       0.00000000       0.07614716
Nd       0.00000000       0.00000000       3.47212121       0.00000000       0.00000000      -0.07614716
2
Properties=species:S:1:pos:R:3:forces:R:3 energy=-3.10503342737543 pbc="F F F"
Nd       0.00000000       0.00000000       0.00000000       0.00000000       0.00000000       0.13711745
Nd       0.00000000       0.00000000       3.53090909       0.00000000       0.00000000      -0.13711745
2
Properties=species:S:1:pos:R:3:forces:R:3 energy=-3.0952909425054553 pbc="F F F"
Nd       0.00000000       0.00000000       0.00000000       0.00000000       0.00000000       0.19381867
Nd       0.00000000       0.00000000       3.58969697       0.00000000       0.00000000      -0.19381867
2
Properties=species:S:1:pos:R:3:forces:R:3 energy=-3.0822725146760153 pbc="F F F"
Nd       0.00000000       0.00000000       0.00000000       0.00000000       0.00000000       0.24886839
Nd       0.00000000       0.00000000       3.64848485       0.00000000       0.00000000      -0.24886839
2
Properties=species:S:1:pos:R:3:forces:R:3 energy=-3.0660790532783366 pbc="F F F"
Nd       0.00000000       0.00000000       0.00000000       0.00000000       0.00000000       0.30156577
Nd       0.00000000       0.00000000       3.70727273       0.00000000       0.00000000      -0.30156577
2
Properties=species:S:1:pos:R:3:forces:R:3 energy=-3.04688764760736 pbc="F F F"
Nd       0.00000000       0.00000000       0.00000000       0.00000000       0.00000000       0.35061163
Nd       0.00000000       0.00000000       3.76606061       0.00000000       0.00000000      -0.35061163
2
Properties=species:S:1:pos:R:3:forces:R:3 energy=-3.0249344640804905 pbc="F F F"
Nd       0.00000000       0.00000000       0.00000000       0.00000000       0.00000000       0.39555630
Nd       0.00000000       0.00000000       3.82484848       0.00000000       0.00000000      -0.39555630
2
Properties=species:S:1:pos:R:3:forces:R:3 energy=-3.0004537617664995 pbc="F F F"
Nd       0.00000000       0.00000000       0.00000000       0.00000000       0.00000000       0.43668076
Nd       0.00000000       0.00000000       3.88363636       0.00000000       0.00000000      -0.43668076
2
Properties=species:S:1:pos:R:3:forces:R:3 energy=-2.9736597345596474 pbc="F F F"
Nd       0.00000000       0.00000000       0.00000000       0.00000000       0.00000000       0.47436550
Nd       0.00000000       0.00000000       3.94242424       0.00000000       0.00000000      -0.47436550
2
Properties=species:S:1:pos:R:3:forces:R:3 energy=-2.944745532162792 pbc="F F F"
Nd       0.00000000       0.00000000       0.00000000       0.00000000       0.00000000       0.50873095
Nd       0.00000000       0.00000000       4.00121212       0.00000000       0.00000000      -0.50873095
2
Properties=species:S:1:pos:R:3:forces:R:3 energy=-2.9139120477149185 pbc="F F F"
Nd       0.00000000       0.00000000       0.00000000       0.00000000       0.00000000       0.53968430
Nd       0.00000000       0.00000000       4.06000000       0.00000000       0.00000000      -0.53968430
2
Properties=species:S:1:pos:R:3:forces:R:3 energy=-2.8813630733918285 pbc="F F F"
Nd       0.00000000       0.00000000       0.00000000       0.00000000       0.00000000       0.56706339
Nd       0.00000000       0.00000000       4.11878788       0.00000000       0.00000000      -0.56706339
2
Properties=species:S:1:pos:R:3:forces:R:3 energy=-2.8473138961462734 pbc="F F F"
Nd       0.00000000       0.00000000       0.00000000       0.00000000       0.00000000       0.59061301
Nd       0.00000000       0.00000000       4.17757576       0.00000000       0.00000000      -0.59061301
2
Properties=species:S:1:pos:R:3:forces:R:3 energy=-2.8120029065265055 pbc="F F F"
Nd       0.00000000       0.00000000       0.00000000       0.00000000       0.00000000       0.60990125
Nd       0.00000000       0.00000000       4.23636364       0.00000000       0.00000000      -0.60990125
2
Properties=species:S:1:pos:R:3:forces:R:3 energy=-2.7756982110400483 pbc="F F F"
Nd       0.00000000       0.00000000       0.00000000       0.00000000       0.00000000       0.62433100
Nd       0.00000000       0.00000000       4.29515152       0.00000000       0.00000000      -0.62433100
2
Properties=species:S:1:pos:R:3:forces:R:3 energy=-2.7387072956097467 pbc="F F F"
Nd       0.00000000       0.00000000       0.00000000       0.00000000       0.00000000       0.63331729
Nd       0.00000000       0.00000000       4.35393939       0.00000000       0.00000000      -0.63331729
2
Properties=species:S:1:pos:R:3:forces:R:3 energy=-2.7013493056621494 pbc="F F F"
Nd       0.00000000       0.00000000       0.00000000       0.00000000       0.00000000       0.63650310
Nd       0.00000000       0.00000000       4.41272727       0.00000000       0.00000000      -0.63650310
2
Properties=species:S:1:pos:R:3:forces:R:3 energy=-2.663980069742928 pbc="F F F"
Nd       0.00000000       0.00000000       0.00000000       0.00000000       0.00000000       0.63390410
Nd       0.00000000       0.00000000       4.47151515       0.00000000       0.00000000      -0.63390410
2
Properties=species:S:1:pos:R:3:forces:R:3 energy=-2.626923295581923 pbc="F F F"
Nd       0.00000000       0.00000000       0.00000000       0.00000000       0.00000000       0.62591946
Nd       0.00000000       0.00000000       4.53030303       0.00000000       0.00000000      -0.62591946
2
Properties=species:S:1:pos:R:3:forces:R:3 energy=-2.5904802842343493 pbc="F F F"
Nd       0.00000000       0.00000000       0.00000000       0.00000000       0.00000000       0.61322683
Nd       0.00000000       0.00000000       4.58909091       0.00000000       0.00000000      -0.61322683
2
Properties=species:S:1:pos:R:3:forces:R:3 energy=-2.5548984841709275 pbc="F F F"
Nd       0.00000000       0.00000000       0.00000000       0.00000000       0.00000000       0.59671503
Nd       0.00000000       0.00000000       4.64787879       0.00000000       0.00000000      -0.59671503
2
Properties=species:S:1:pos:R:3:forces:R:3 energy=-2.5203762596494705 pbc="F F F"
Nd       0.00000000       0.00000000       0.00000000       0.00000000       0.00000000       0.57737845
Nd       0.00000000       0.00000000       4.70666667       0.00000000       0.00000000      -0.57737845
2
Properties=species:S:1:pos:R:3:forces:R:3 energy=-2.487046817635677 pbc="F F F"
Nd       0.00000000       0.00000000       0.00000000       0.00000000       0.00000000       0.55631077
Nd       0.00000000       0.00000000       4.76545455       0.00000000       0.00000000      -0.55631077
2
Properties=species:S:1:pos:R:3:forces:R:3 energy=-2.4549781571179774 pbc="F F F"
Nd       0.00000000       0.00000000       0.00000000       0.00000000       0.00000000       0.53464925
Nd       0.00000000       0.00000000       4.82424242       0.00000000       0.00000000      -0.53464925
2
Properties=species:S:1:pos:R:3:forces:R:3 energy=-2.42417697250382 pbc="F F F"
Nd       0.00000000       0.00000000       0.00000000       0.00000000       0.00000000       0.51346332
Nd       0.00000000       0.00000000       4.88303030       0.00000000       0.00000000      -0.51346332
2
Properties=species:S:1:pos:R:3:forces:R:3 energy=-2.3945838599055103 pbc="F F F"
Nd       0.00000000       0.00000000       0.00000000       0.00000000       0.00000000       0.49354967
Nd       0.00000000       0.00000000       4.94181818       0.00000000       0.00000000      -0.49354967
2
Properties=species:S:1:pos:R:3:forces:R:3 energy=-2.366114325135819 pbc="F F F"
Nd       0.00000000       0.00000000       0.00000000       0.00000000       0.00000000       0.47526103
Nd       0.00000000       0.00000000       5.00060606       0.00000000       0.00000000      -0.47526103
2
Properties=species:S:1:pos:R:3:forces:R:3 energy=-2.3386750975416684 pbc="F F F"
Nd       0.00000000       0.00000000       0.00000000       0.00000000       0.00000000       0.45830038
Nd       0.00000000       0.00000000       5.05939394       0.00000000       0.00000000      -0.45830038
2
Properties=species:S:1:pos:R:3:forces:R:3 energy=-2.3122231564414384 pbc="F F F"
Nd       0.00000000       0.00000000       0.00000000       0.00000000       0.00000000       0.44170558
Nd       0.00000000       0.00000000       5.11818182       0.00000000       0.00000000      -0.44170558
2
Properties=species:S:1:pos:R:3:forces:R:3 energy=-2.2867666087715564 pbc="F F F"
Nd       0.00000000       0.00000000       0.00000000       0.00000000       0.00000000       0.42397290
Nd       0.00000000       0.00000000       5.17696970       0.00000000       0.00000000      -0.42397290
2
Properties=species:S:1:pos:R:3:forces:R:3 energy=-2.262432533011488 pbc="F F F"
Nd       0.00000000       0.00000000       0.00000000       0.00000000       0.00000000       0.40337074
Nd       0.00000000       0.00000000       5.23575758       0.00000000       0.00000000      -0.40337074
2
Properties=species:S:1:pos:R:3:forces:R:3 energy=-2.2394295007814056 pbc="F F F"
Nd       0.00000000       0.00000000       0.00000000       0.00000000       0.00000000       0.37834802
Nd       0.00000000       0.00000000       5.29454545       0.00000000       0.00000000      -0.37834802
2
Properties=species:S:1:pos:R:3:forces:R:3 energy=-2.2180515562662064 pbc="F F F"
Nd       0.00000000       0.00000000       0.00000000       0.00000000       0.00000000       0.34790340
Nd       0.00000000       0.00000000       5.35333333       0.00000000       0.00000000      -0.34790340
2
Properties=species:S:1:pos:R:3:forces:R:3 energy=-2.198633152768157 pbc="F F F"
Nd       0.00000000       0.00000000       0.00000000       0.00000000       0.00000000       0.31194076
Nd       0.00000000       0.00000000       5.41212121       0.00000000       0.00000000      -0.31194076
2
Properties=species:S:1:pos:R:3:forces:R:3 energy=-2.1814661513631433 pbc="F F F"
Nd       0.00000000       0.00000000       0.00000000       0.00000000       0.00000000       0.27138287
Nd       0.00000000       0.00000000       5.47090909       0.00000000       0.00000000      -0.27138287
2
Properties=species:S:1:pos:R:3:forces:R:3 energy=-2.1667758840081 pbc="F F F"
Nd       0.00000000       0.00000000       0.00000000       0.00000000       0.00000000       0.22811763
Nd       0.00000000       0.00000000       5.52969697       0.00000000       0.00000000      -0.22811763
2
Properties=species:S:1:pos:R:3:forces:R:3 energy=-2.1546466972522387 pbc="F F F"
Nd       0.00000000       0.00000000       0.00000000       0.00000000       0.00000000       0.18471186
Nd       0.00000000       0.00000000       5.58848485       0.00000000       0.00000000      -0.18471186
2
Properties=species:S:1:pos:R:3:forces:R:3 energy=-2.1450084677480916 pbc="F F F"
Nd       0.00000000       0.00000000       0.00000000       0.00000000       0.00000000       0.14407670
Nd       0.00000000       0.00000000       5.64727273       0.00000000       0.00000000      -0.14407670
2
Properties=species:S:1:pos:R:3:forces:R:3 energy=-2.137603071594973 pbc="F F F"
Nd       0.00000000       0.00000000       0.00000000       0.00000000       0.00000000       0.10885157
Nd       0.00000000       0.00000000       5.70606061       0.00000000       0.00000000      -0.10885157
2
Properties=species:S:1:pos:R:3:forces:R:3 energy=-2.13205691427218 pbc="F F F"
Nd       0.00000000       0.00000000       0.00000000       0.00000000       0.00000000       0.08105570
Nd       0.00000000       0.00000000       5.76484848       0.00000000       0.00000000      -0.08105570
2
Properties=species:S:1:pos:R:3:forces:R:3 energy=-2.1279045887632186 pbc="F F F"
Nd       0.00000000       0.00000000       0.00000000       0.00000000       0.00000000       0.06168270
Nd       0.00000000       0.00000000       5.82363636       0.00000000       0.00000000      -0.06168270
2
Properties=species:S:1:pos:R:3:forces:R:3 energy=-2.1246487986466307 pbc="F F F"
Nd       0.00000000       0.00000000       0.00000000       0.00000000       0.00000000       0.05039195
Nd       0.00000000       0.00000000       5.88242424       0.00000000       0.00000000      -0.05039195
2
Properties=species:S:1:pos:R:3:forces:R:3 energy=-2.1218549112374907 pbc="F F F"
Nd       0.00000000       0.00000000       0.00000000       0.00000000       0.00000000       0.04548860
Nd       0.00000000       0.00000000       5.94121212       0.00000000       0.00000000      -0.04548860
2
Properties=species:S:1:pos:R:3:forces:R:3 energy=-2.119227920103043 pbc="F F F"
Nd       0.00000000       0.00000000       0.00000000       0.00000000       0.00000000       0.04415693
Nd       0.00000000       0.00000000       6.00000000       0.00000000       0.00000000      -0.04415693
