2
Properties=species:S:1:pos:R:3:forces:R:3 energy=97608.66745133749 pbc="F F F"
Ni       0.00000000       0.00000000       0.00000000       0.00000000       0.00000000 -759356.18750000
Ni       0.00000000       0.00000000       0.18000000       0.00000000       0.00000000  759356.18750000
2
Properties=species:S:1:pos:R:3:forces:R:3 energy=57205.7651075875 pbc="F F F"
Ni       0.00000000       0.00000000       0.00000000       0.00000000       0.00000000 -594515.31250000
Ni       0.00000000       0.00000000       0.23878788       0.00000000       0.00000000  594515.31250000
2
Properties=species:S:1:pos:R:3:forces:R:3 energy=29241.417451337493 pbc="F F F"
Ni       0.00000000       0.00000000       0.00000000       0.00000000       0.00000000 -361898.96875000
Ni       0.00000000       0.00000000       0.29757576       0.00000000       0.00000000  361898.96875000
2
Properties=species:S:1:pos:R:3:forces:R:3 energy=13364.877412278162 pbc="F F F"
Ni       0.00000000       0.00000000       0.00000000       0.00000000       0.00000000 -187406.18750000
Ni       0.00000000       0.00000000       0.35636364       0.00000000       0.00000000  187406.18750000
2
Properties=species:S:1:pos:R:3:forces:R:3 energy=5680.957978690747 pbc="F F F"
Ni       0.00000000       0.00000000       0.00000000       0.00000000       0.00000000  -86726.45312500
Ni       0.00000000       0.00000000       0.41515152       0.00000000       0.00000000   86726.45312500
2
Properties=species:S:1:pos:R:3:forces:R:3 energy=3396.0529494097113 pbc="F F F"
Ni       0.00000000       0.00000000       0.00000000       0.00000000       0.00000000  -16579.38085938
Ni       0.00000000       0.00000000       0.47393939       0.00000000       0.00000000   16579.38085938
2
Properties=species:S:1:pos:R:3:forces:R:3 energy=1977.3348097897842 pbc="F F F"
Ni       0.00000000       0.00000000       0.00000000       0.00000000       0.00000000  -24532.77148438
Ni       0.00000000       0.00000000       0.53272727       0.00000000       0.00000000   24532.77148438
2
Properties=species:S:1:pos:R:3:forces:R:3 energy=957.6512160873016 pbc="F F F"
Ni       0.00000000       0.00000000       0.00000000       0.00000000       0.00000000  -11701.38085938
Ni       0.00000000       0.00000000       0.59151515       0.00000000       0.00000000   11701.38085938
2
Properties=species:S:1:pos:R:3:forces:R:3 energy=399.66104283298904 pbc="F F F"
Ni       0.00000000       0.00000000       0.00000000       0.00000000       0.00000000   -7202.91308594
Ni       0.00000000       0.00000000       0.65030303       0.00000000       0.00000000    7202.91308594
2
Properties=species:S:1:pos:R:3:forces:R:3 energy=148.80830553611196 pbc="F F F"
Ni       0.00000000       0.00000000       0.00000000       0.00000000       0.00000000   -2706.30322266
Ni       0.00000000       0.00000000       0.70909091       0.00000000       0.00000000    2706.30322266
2
Properties=species:S:1:pos:R:3:forces:R:3 energy=45.63301276376692 pbc="F F F"
Ni       0.00000000       0.00000000       0.00000000       0.00000000       0.00000000    -994.19152832
Ni       0.00000000       0.00000000       0.76787879       0.00000000       0.00000000     994.19152832
2
Properties=species:S:1:pos:R:3:forces:R:3 energy=9.849256799103042 pbc="F F F"
Ni       0.00000000       0.00000000       0.00000000       0.00000000       0.00000000    -299.30902100
Ni       0.00000000       0.00000000       0.82666667       0.00000000       0.00000000     299.30902100
2
Properties=species:S:1:pos:R:3:forces:R:3 energy=0.8172557155585924 pbc="F F F"
Ni       0.00000000       0.00000000       0.00000000       0.00000000       0.00000000     -45.23847580
Ni       0.00000000       0.00000000       0.88545455       0.00000000       0.00000000      45.23847580
2
Properties=species:S:1:pos:R:3:forces:R:3 energy=0.3416989711673599 pbc="F F F"
Ni       0.00000000       0.00000000       0.00000000       0.00000000       0.00000000      10.17019939
Ni       0.00000000       0.00000000       0.94424242       0.00000000       0.00000000     -10.17019939
2
Properties=species:S:1:pos:R:3:forces:R:3 energy=1.5311433608831992 pbc="F F F"
Ni       0.00000000       0.00000000       0.00000000       0.00000000       0.00000000      31.19352150
Ni       0.00000000       0.00000000       1.00303030       0.00000000       0.00000000     -31.19352150
2
Properties=species:S:1:pos:R:3:forces:R:3 energy=3.6267226347751027 pbc="F F F"
Ni       0.00000000       0.00000000       0.00000000       0.00000000       0.00000000      37.21019745
Ni       0.00000000       0.00000000       1.06181818       0.00000000       0.00000000     -37.21019745
2
Properties=species:S:1:pos:R:3:forces:R:3 energy=5.655104460612647 pbc="F F F"
Ni       0.00000000       0.00000000       0.00000000       0.00000000       0.00000000      28.78419876
Ni       0.00000000       0.00000000       1.12060606       0.00000000       0.00000000     -28.78419876
2
Properties=species:S:1:pos:R:3:forces:R:3 energy=6.6845348243546665 pbc="F F F"
Ni       0.00000000       0.00000000       0.00000000       0.00000000       0.00000000       7.58874989
Ni       0.00000000       0.00000000       1.17939394       0.00000000       0.00000000      -7.58874989
2
Properties=species:S:1:pos:R:3:forces:R:3 energy=6.937888465622106 pbc="F F F"
Ni       0.00000000       0.00000000       0.00000000       0.00000000       0.00000000      -2.00974250
Ni       0.00000000       0.00000000       1.23818182       0.00000000       0.00000000       2.00974250
2
Properties=species:S:1:pos:R:3:forces:R:3 energy=6.474373417884149 pbc="F F F"
Ni       0.00000000       0.00000000       0.00000000       0.00000000       0.00000000     -14.91424274
Ni       0.00000000       0.00000000       1.29696970       0.00000000       0.00000000      14.91424274
2
Properties=species:S:1:pos:R:3:forces:R:3 energy=5.304717718749336 pbc="F F F"
Ni       0.00000000       0.00000000       0.00000000       0.00000000       0.00000000     -23.98180199
Ni       0.00000000       0.00000000       1.35575758       0.00000000       0.00000000      23.98180199
2
Properties=species:S:1:pos:R:3:forces:R:3 energy=3.770868087294761 pbc="F F F"
Ni       0.00000000       0.00000000       0.00000000       0.00000000       0.00000000     -26.88113022
Ni       0.00000000       0.00000000       1.41454545       0.00000000       0.00000000      26.88113022
2
Properties=species:S:1:pos:R:3:forces:R:3 energy=2.2323751041327746 pbc="F F F"
Ni       0.00000000       0.00000000       0.00000000       0.00000000       0.00000000     -25.00229263
Ni       0.00000000       0.00000000       1.47333333       0.00000000       0.00000000      25.00229263
2
Properties=species:S:1:pos:R:3:forces:R:3 energy=0.8703195272510248 pbc="F F F"
Ni       0.00000000       0.00000000       0.00000000       0.00000000       0.00000000     -21.15029144
Ni       0.00000000       0.00000000       1.53212121       0.00000000       0.00000000      21.15029144
2
Properties=species:S:1:pos:R:3:forces:R:3 energy=-0.24729443117395947 pbc="F F F"
Ni       0.00000000       0.00000000       0.00000000       0.00000000       0.00000000     -17.05954552
Ni       0.00000000       0.00000000       1.59090909       0.00000000       0.00000000      17.05954552
2
Properties=species:S:1:pos:R:3:forces:R:3 energy=-1.1615159646527315 pbc="F F F"
Ni       0.00000000       0.00000000       0.00000000       0.00000000       0.00000000     -14.09532833
Ni       0.00000000       0.00000000       1.64969697       0.00000000       0.00000000      14.09532833
2
Properties=species:S:1:pos:R:3:forces:R:3 energy=-1.9197053978981284 pbc="F F F"
Ni       0.00000000       0.00000000       0.00000000       0.00000000       0.00000000     -11.78155041
Ni       0.00000000       0.00000000       1.70848485       0.00000000       0.00000000      11.78155041
2
Properties=species:S:1:pos:R:3:forces:R:3 energy=-2.548160258044265 pbc="F F F"
Ni       0.00000000       0.00000000       0.00000000       0.00000000       0.00000000      -9.69184208
Ni       0.00000000       0.00000000       1.76727273       0.00000000       0.00000000       9.69184208
2
Properties=species:S:1:pos:R:3:forces:R:3 energy=-3.0730312894486427 pbc="F F F"
Ni       0.00000000       0.00000000       0.00000000       0.00000000       0.00000000      -8.14191246
Ni       0.00000000       0.00000000       1.82606061       0.00000000       0.00000000       8.14191246
2
Properties=species:S:1:pos:R:3:forces:R:3 energy=-3.4982673990090443 pbc="F F F"
Ni       0.00000000       0.00000000       0.00000000       0.00000000       0.00000000      -6.39393425
Ni       0.00000000       0.00000000       1.88484848       0.00000000       0.00000000       6.39393425
2
Properties=species:S:1:pos:R:3:forces:R:3 energy=-3.8268836680158396 pbc="F F F"
Ni       0.00000000       0.00000000       0.00000000       0.00000000       0.00000000      -4.74550438
Ni       0.00000000       0.00000000       1.94363636       0.00000000       0.00000000       4.74550438
2
Properties=species:S:1:pos:R:3:forces:R:3 energy=-4.058326646032686 pbc="F F F"
Ni       0.00000000       0.00000000       0.00000000       0.00000000       0.00000000      -3.18072200
Ni       0.00000000       0.00000000       2.00242424       0.00000000       0.00000000       3.18072200
2
Properties=species:S:1:pos:R:3:forces:R:3 energy=-4.20535801239967 pbc="F F F"
Ni       0.00000000       0.00000000       0.00000000       0.00000000       0.00000000      -1.85835040
Ni       0.00000000       0.00000000       2.06121212       0.00000000       0.00000000       1.85835040
2
Properties=species:S:1:pos:R:3:forces:R:3 energy=-4.282663705061977 pbc="F F F"
Ni       0.00000000       0.00000000       0.00000000       0.00000000       0.00000000      -0.82030362
Ni       0.00000000       0.00000000       2.12000000       0.00000000       0.00000000       0.82030362
2
Properties=species:S:1:pos:R:3:forces:R:3 energy=-4.307947752511149 pbc="F F F"
Ni       0.00000000       0.00000000       0.00000000       0.00000000       0.00000000      -0.10061640
Ni       0.00000000       0.00000000       2.17878788       0.00000000       0.00000000       0.10061640
2
Properties=species:S:1:pos:R:3:forces:R:3 energy=-4.300107004070513 pbc="F F F"
Ni       0.00000000       0.00000000       0.00000000       0.00000000       0.00000000       0.33505866
Ni       0.00000000       0.00000000       2.23757576       0.00000000       0.00000000      -0.33505866
2
Properties=species:S:1:pos:R:3:forces:R:3 energy=-4.272170883760279 pbc="F F F"
Ni       0.00000000       0.00000000       0.00000000       0.00000000       0.00000000       0.58850431
Ni       0.00000000       0.00000000       2.29636364       0.00000000       0.00000000      -0.58850431
2
Properties=species:S:1:pos:R:3:forces:R:3 energy=-4.233090344260075 pbc="F F F"
Ni       0.00000000       0.00000000       0.00000000       0.00000000       0.00000000       0.72926533
Ni       0.00000000       0.00000000       2.35515152       0.00000000       0.00000000      -0.72926533
2
Properties=species:S:1:pos:R:3:forces:R:3 energy=-4.18706689235305 pbc="F F F"
Ni       0.00000000       0.00000000       0.00000000       0.00000000       0.00000000       0.83758336
Ni       0.00000000       0.00000000       2.41393939       0.00000000       0.00000000      -0.83758336
2
Properties=species:S:1:pos:R:3:forces:R:3 energy=-4.134557107327256 pbc="F F F"
Ni       0.00000000       0.00000000       0.00000000       0.00000000       0.00000000       0.94251424
Ni       0.00000000       0.00000000       2.47272727       0.00000000       0.00000000      -0.94251424
2
Properties=species:S:1:pos:R:3:forces:R:3 energy=-4.077536162540781 pbc="F F F"
Ni       0.00000000       0.00000000       0.00000000       0.00000000       0.00000000       0.98702884
Ni       0.00000000       0.00000000       2.53151515       0.00000000       0.00000000      -0.98702884
2
Properties=species:S:1:pos:R:3:forces:R:3 energy=-4.019485170775282 pbc="F F F"
Ni       0.00000000       0.00000000       0.00000000       0.00000000       0.00000000       0.98039770
Ni       0.00000000       0.00000000       2.59030303       0.00000000       0.00000000      -0.98039770
2
Properties=species:S:1:pos:R:3:forces:R:3 energy=-3.963000465414329 pbc="F F F"
Ni       0.00000000       0.00000000       0.00000000       0.00000000       0.00000000       0.93723029
Ni       0.00000000       0.00000000       2.64909091       0.00000000       0.00000000      -0.93723029
2
Properties=species:S:1:pos:R:3:forces:R:3 energy=-3.9094470328040565 pbc="F F F"
Ni       0.00000000       0.00000000       0.00000000       0.00000000       0.00000000       0.88545752
Ni       0.00000000       0.00000000       2.70787879       0.00000000       0.00000000      -0.88545752
2
Properties=species:S:1:pos:R:3:forces:R:3 energy=-3.8587036867867885 pbc="F F F"
Ni       0.00000000       0.00000000       0.00000000       0.00000000       0.00000000       0.84262657
Ni       0.00000000       0.00000000       2.76666667       0.00000000       0.00000000      -0.84262657
2
Properties=species:S:1:pos:R:3:forces:R:3 energy=-3.8102029733647655 pbc="F F F"
Ni       0.00000000       0.00000000       0.00000000       0.00000000       0.00000000       0.80849391
Ni       0.00000000       0.00000000       2.82545455       0.00000000       0.00000000      -0.80849391
2
Properties=species:S:1:pos:R:3:forces:R:3 energy=-3.763567278980903 pbc="F F F"
Ni       0.00000000       0.00000000       0.00000000       0.00000000       0.00000000       0.77841628
Ni       0.00000000       0.00000000       2.88424242       0.00000000       0.00000000      -0.77841628
2
Properties=species:S:1:pos:R:3:forces:R:3 energy=-3.7186467053854293 pbc="F F F"
Ni       0.00000000       0.00000000       0.00000000       0.00000000       0.00000000       0.75015104
Ni       0.00000000       0.00000000       2.94303030       0.00000000       0.00000000      -0.75015104
2
Properties=species:S:1:pos:R:3:forces:R:3 energy=-3.675306379338196 pbc="F F F"
Ni       0.00000000       0.00000000       0.00000000       0.00000000       0.00000000       0.72500461
Ni       0.00000000       0.00000000       3.00181818       0.00000000       0.00000000      -0.72500461
2
Properties=species:S:1:pos:R:3:forces:R:3 energy=-3.6333311448861085 pbc="F F F"
Ni       0.00000000       0.00000000       0.00000000       0.00000000       0.00000000       0.70335644
Ni       0.00000000       0.00000000       3.06060606       0.00000000       0.00000000      -0.70335644
2
Properties=species:S:1:pos:R:3:forces:R:3 energy=-3.5926024412785695 pbc="F F F"
Ni       0.00000000       0.00000000       0.00000000       0.00000000       0.00000000       0.68206704
Ni       0.00000000       0.00000000       3.11939394       0.00000000       0.00000000      -0.68206704
2
Properties=species:S:1:pos:R:3:forces:R:3 energy=-3.553164410606238 pbc="F F F"
Ni       0.00000000       0.00000000       0.00000000       0.00000000       0.00000000       0.65949398
Ni       0.00000000       0.00000000       3.17818182       0.00000000       0.00000000      -0.65949398
2
Properties=species:S:1:pos:R:3:forces:R:3 energy=-3.515057182193698 pbc="F F F"
Ni       0.00000000       0.00000000       0.00000000       0.00000000       0.00000000       0.63708836
Ni       0.00000000       0.00000000       3.23696970       0.00000000       0.00000000      -0.63708836
2
Properties=species:S:1:pos:R:3:forces:R:3 energy=-3.478253027105414 pbc="F F F"
Ni       0.00000000       0.00000000       0.00000000       0.00000000       0.00000000       0.61486000
Ni       0.00000000       0.00000000       3.29575758       0.00000000       0.00000000      -0.61486000
2
Properties=species:S:1:pos:R:3:forces:R:3 energy=-3.442802962565205 pbc="F F F"
Ni       0.00000000       0.00000000       0.00000000       0.00000000       0.00000000       0.59069782
Ni       0.00000000       0.00000000       3.35454545       0.00000000       0.00000000      -0.59069782
2
Properties=species:S:1:pos:R:3:forces:R:3 energy=-3.408875852603218 pbc="F F F"
Ni       0.00000000       0.00000000       0.00000000       0.00000000       0.00000000       0.56285626
Ni       0.00000000       0.00000000       3.41333333       0.00000000       0.00000000      -0.56285626
2
Properties=species:S:1:pos:R:3:forces:R:3 energy=-3.376701021206354 pbc="F F F"
Ni       0.00000000       0.00000000       0.00000000       0.00000000       0.00000000       0.53118390
Ni       0.00000000       0.00000000       3.47212121       0.00000000       0.00000000      -0.53118390
2
Properties=species:S:1:pos:R:3:forces:R:3 energy=-3.3464774948671057 pbc="F F F"
Ni       0.00000000       0.00000000       0.00000000       0.00000000       0.00000000       0.49663764
Ni       0.00000000       0.00000000       3.53090909       0.00000000       0.00000000      -0.49663764
2
Properties=species:S:1:pos:R:3:forces:R:3 energy=-3.3183423015840807 pbc="F F F"
Ni       0.00000000       0.00000000       0.00000000       0.00000000       0.00000000       0.46034974
Ni       0.00000000       0.00000000       3.58969697       0.00000000       0.00000000      -0.46034974
2
Properties=species:S:1:pos:R:3:forces:R:3 energy=-3.292367228036562 pbc="F F F"
Ni       0.00000000       0.00000000       0.00000000       0.00000000       0.00000000       0.42325708
Ni       0.00000000       0.00000000       3.64848485       0.00000000       0.00000000      -0.42325708
2
Properties=species:S:1:pos:R:3:forces:R:3 energy=-3.2685750320478864 pbc="F F F"
Ni       0.00000000       0.00000000       0.00000000       0.00000000       0.00000000       0.38627428
Ni       0.00000000       0.00000000       3.70727273       0.00000000       0.00000000      -0.38627428
2
Properties=species:S:1:pos:R:3:forces:R:3 energy=-3.2469285260159575 pbc="F F F"
Ni       0.00000000       0.00000000       0.00000000       0.00000000       0.00000000       0.35042486
Ni       0.00000000       0.00000000       3.76606061       0.00000000       0.00000000      -0.35042486
2
Properties=species:S:1:pos:R:3:forces:R:3 energy=-3.2273325159401045 pbc="F F F"
Ni       0.00000000       0.00000000       0.00000000       0.00000000       0.00000000       0.31667581
Ni       0.00000000       0.00000000       3.82484848       0.00000000       0.00000000      -0.31667581
2
Properties=species:S:1:pos:R:3:forces:R:3 energy=-3.2096418569676137 pbc="F F F"
Ni       0.00000000       0.00000000       0.00000000       0.00000000       0.00000000       0.28565431
Ni       0.00000000       0.00000000       3.88363636       0.00000000       0.00000000      -0.28565431
2
Properties=species:S:1:pos:R:3:forces:R:3 energy=-3.1936895424365535 pbc="F F F"
Ni       0.00000000       0.00000000       0.00000000       0.00000000       0.00000000       0.25750834
Ni       0.00000000       0.00000000       3.94242424       0.00000000       0.00000000      -0.25750834
2
Properties=species:S:1:pos:R:3:forces:R:3 energy=-3.179313305386325 pbc="F F F"
Ni       0.00000000       0.00000000       0.00000000       0.00000000       0.00000000       0.23198718
Ni       0.00000000       0.00000000       4.00121212       0.00000000       0.00000000      -0.23198718
2
Properties=species:S:1:pos:R:3:forces:R:3 energy=-3.166370261125393 pbc="F F F"
Ni       0.00000000       0.00000000       0.00000000       0.00000000       0.00000000       0.20868438
Ni       0.00000000       0.00000000       4.06000000       0.00000000       0.00000000      -0.20868438
2
Properties=species:S:1:pos:R:3:forces:R:3 energy=-3.154740093035928 pbc="F F F"
Ni       0.00000000       0.00000000       0.00000000       0.00000000       0.00000000       0.18727654
Ni       0.00000000       0.00000000       4.11878788       0.00000000       0.00000000      -0.18727654
2
Properties=species:S:1:pos:R:3:forces:R:3 energy=-3.1443162889390983 pbc="F F F"
Ni       0.00000000       0.00000000       0.00000000       0.00000000       0.00000000       0.16763522
Ni       0.00000000       0.00000000       4.17757576       0.00000000       0.00000000      -0.16763522
2
Properties=species:S:1:pos:R:3:forces:R:3 energy=-3.1349944847591873 pbc="F F F"
Ni       0.00000000       0.00000000       0.00000000       0.00000000       0.00000000       0.14979522
Ni       0.00000000       0.00000000       4.23636364       0.00000000       0.00000000      -0.14979522
2
Properties=species:S:1:pos:R:3:forces:R:3 energy=-3.126666972224727 pbc="F F F"
Ni       0.00000000       0.00000000       0.00000000       0.00000000       0.00000000       0.13384585
Ni       0.00000000       0.00000000       4.29515152       0.00000000       0.00000000      -0.13384585
2
Properties=species:S:1:pos:R:3:forces:R:3 energy=-3.119221281028312 pbc="F F F"
Ni       0.00000000       0.00000000       0.00000000       0.00000000       0.00000000       0.11982448
Ni       0.00000000       0.00000000       4.35393939       0.00000000       0.00000000      -0.11982448
2
Properties=species:S:1:pos:R:3:forces:R:3 energy=-3.112542014979159 pbc="F F F"
Ni       0.00000000       0.00000000       0.00000000       0.00000000       0.00000000       0.10765513
Ni       0.00000000       0.00000000       4.41272727       0.00000000       0.00000000      -0.10765513
2
Properties=species:S:1:pos:R:3:forces:R:3 energy=-3.106529998349343 pbc="F F F"
Ni       0.00000000       0.00000000       0.00000000       0.00000000       0.00000000       0.09714662
Ni       0.00000000       0.00000000       4.47151515       0.00000000       0.00000000      -0.09714662
2
Properties=species:S:1:pos:R:3:forces:R:3 energy=-3.1010935280781986 pbc="F F F"
Ni       0.00000000       0.00000000       0.00000000       0.00000000       0.00000000       0.08802868
Ni       0.00000000       0.00000000       4.53030303       0.00000000       0.00000000      -0.08802868
2
Properties=species:S:1:pos:R:3:forces:R:3 energy=-3.0961586677848287 pbc="F F F"
Ni       0.00000000       0.00000000       0.00000000       0.00000000       0.00000000       0.08000985
Ni       0.00000000       0.00000000       4.58909091       0.00000000       0.00000000      -0.08000985
2
Properties=species:S:1:pos:R:3:forces:R:3 energy=-3.0916691780760157 pbc="F F F"
Ni       0.00000000       0.00000000       0.00000000       0.00000000       0.00000000       0.07283489
Ni       0.00000000       0.00000000       4.64787879       0.00000000       0.00000000      -0.07283489
2
Properties=species:S:1:pos:R:3:forces:R:3 energy=-3.087581770349394 pbc="F F F"
Ni       0.00000000       0.00000000       0.00000000       0.00000000       0.00000000       0.06632324
Ni       0.00000000       0.00000000       4.70666667       0.00000000       0.00000000      -0.06632324
2
Properties=species:S:1:pos:R:3:forces:R:3 energy=-3.0838588370266606 pbc="F F F"
Ni       0.00000000       0.00000000       0.00000000       0.00000000       0.00000000       0.06038909
Ni       0.00000000       0.00000000       4.76545455       0.00000000       0.00000000      -0.06038909
2
Properties=species:S:1:pos:R:3:forces:R:3 energy=-3.080468988579349 pbc="F F F"
Ni       0.00000000       0.00000000       0.00000000       0.00000000       0.00000000       0.05503379
Ni       0.00000000       0.00000000       4.82424242       0.00000000       0.00000000      -0.05503379
2
Properties=species:S:1:pos:R:3:forces:R:3 energy=-3.07737661696433 pbc="F F F"
Ni       0.00000000       0.00000000       0.00000000       0.00000000       0.00000000       0.05032118
Ni       0.00000000       0.00000000       4.88303030       0.00000000       0.00000000      -0.05032118
2
Properties=species:S:1:pos:R:3:forces:R:3 energy=-3.074538999754817 pbc="F F F"
Ni       0.00000000       0.00000000       0.00000000       0.00000000       0.00000000       0.04633733
Ni       0.00000000       0.00000000       4.94181818       0.00000000       0.00000000      -0.04633733
2
Properties=species:S:1:pos:R:3:forces:R:3 energy=-3.071913086734355 pbc="F F F"
Ni       0.00000000       0.00000000       0.00000000       0.00000000       0.00000000       0.04314401
Ni       0.00000000       0.00000000       5.00060606       0.00000000       0.00000000      -0.04314401
2
Properties=species:S:1:pos:R:3:forces:R:3 energy=-3.0694508804128824 pbc="F F F"
Ni       0.00000000       0.00000000       0.00000000       0.00000000       0.00000000       0.04073728
Ni       0.00000000       0.00000000       5.05939394       0.00000000       0.00000000      -0.04073728
2
Properties=species:S:1:pos:R:3:forces:R:3 energy=-3.0671103525962105 pbc="F F F"
Ni       0.00000000       0.00000000       0.00000000       0.00000000       0.00000000       0.03902065
Ni       0.00000000       0.00000000       5.11818182       0.00000000       0.00000000      -0.03902065
2
Properties=species:S:1:pos:R:3:forces:R:3 energy=-3.064853223343079 pbc="F F F"
Ni       0.00000000       0.00000000       0.00000000       0.00000000       0.00000000       0.03780101
Ni       0.00000000       0.00000000       5.17696970       0.00000000       0.00000000      -0.03780101
2
Properties=species:S:1:pos:R:3:forces:R:3 energy=-3.062660286278479 pbc="F F F"
Ni       0.00000000       0.00000000       0.00000000       0.00000000       0.00000000       0.03681326
Ni       0.00000000       0.00000000       5.23575758       0.00000000       0.00000000      -0.03681326
2
Properties=species:S:1:pos:R:3:forces:R:3 energy=-3.060526248916113 pbc="F F F"
Ni       0.00000000       0.00000000       0.00000000       0.00000000       0.00000000       0.03576542
Ni       0.00000000       0.00000000       5.29454545       0.00000000       0.00000000      -0.03576542
2
Properties=species:S:1:pos:R:3:forces:R:3 energy=-3.0584617176186693 pbc="F F F"
Ni       0.00000000       0.00000000       0.00000000       0.00000000       0.00000000       0.03439515
Ni       0.00000000       0.00000000       5.35333333       0.00000000       0.00000000      -0.03439515
2
Properties=species:S:1:pos:R:3:forces:R:3 energy=-3.0564927540227975 pbc="F F F"
Ni       0.00000000       0.00000000       0.00000000       0.00000000       0.00000000       0.03252525
Ni       0.00000000       0.00000000       5.41212121       0.00000000       0.00000000      -0.03252525
2
Properties=species:S:1:pos:R:3:forces:R:3 energy=-3.054649535485441 pbc="F F F"
Ni       0.00000000       0.00000000       0.00000000       0.00000000       0.00000000       0.03009653
Ni       0.00000000       0.00000000       5.47090909       0.00000000       0.00000000      -0.03009653
2
Properties=species:S:1:pos:R:3:forces:R:3 energy=-3.0529635384103995 pbc="F F F"
Ni       0.00000000       0.00000000       0.00000000       0.00000000       0.00000000       0.02717935
Ni       0.00000000       0.00000000       5.52969697       0.00000000       0.00000000      -0.02717935
2
Properties=species:S:1:pos:R:3:forces:R:3 energy=-3.0514599167733523 pbc="F F F"
Ni       0.00000000       0.00000000       0.00000000       0.00000000       0.00000000       0.02395381
Ni       0.00000000       0.00000000       5.58848485       0.00000000       0.00000000      -0.02395381
2
Properties=species:S:1:pos:R:3:forces:R:3 energy=-3.0501490378463396 pbc="F F F"
Ni       0.00000000       0.00000000       0.00000000       0.00000000       0.00000000       0.02066818
Ni       0.00000000       0.00000000       5.64727273       0.00000000       0.00000000      -0.02066818
2
Properties=species:S:1:pos:R:3:forces:R:3 energy=-3.0490245320835343 pbc="F F F"
Ni       0.00000000       0.00000000       0.00000000       0.00000000       0.00000000       0.01758722
Ni       0.00000000       0.00000000       5.70606061       0.00000000       0.00000000      -0.01758722
2
Properties=species:S:1:pos:R:3:forces:R:3 energy=-3.0480714547898162 pbc="F F F"
Ni       0.00000000       0.00000000       0.00000000       0.00000000       0.00000000       0.01493328
Ni       0.00000000       0.00000000       5.76484848       0.00000000       0.00000000      -0.01493328
2
Properties=species:S:1:pos:R:3:forces:R:3 energy=-3.0472582511650814 pbc="F F F"
Ni       0.00000000       0.00000000       0.00000000       0.00000000       0.00000000       0.01285105
Ni       0.00000000       0.00000000       5.82363636       0.00000000       0.00000000      -0.01285105
2
Properties=species:S:1:pos:R:3:forces:R:3 energy=-3.0465495604234714 pbc="F F F"
Ni       0.00000000       0.00000000       0.00000000       0.00000000       0.00000000       0.01136601
Ni       0.00000000       0.00000000       5.88242424       0.00000000       0.00000000      -0.01136601
2
Properties=species:S:1:pos:R:3:forces:R:3 energy=-3.045911540989623 pbc="F F F"
Ni       0.00000000       0.00000000       0.00000000       0.00000000       0.00000000       0.01038567
Ni       0.00000000       0.00000000       5.94121212       0.00000000       0.00000000      -0.01038567
2
Properties=species:S:1:pos:R:3:forces:R:3 energy=-3.0453218793272563 pbc="F F F"
Ni       0.00000000       0.00000000       0.00000000       0.00000000       0.00000000       0.00971282
Ni       0.00000000       0.00000000       6.00000000       0.00000000       0.00000000      -0.00971282
