2
Properties=species:S:1:pos:R:3:forces:R:3 energy=157963.2299513375 pbc="F F F"
Ni       0.00000000       0.00000000       0.00000000       0.00000000       0.00000000 -675896.50000000
Ni       0.00000000       0.00000000       0.10000000       0.00000000       0.00000000  675896.50000000
2
Properties=species:S:1:pos:R:3:forces:R:3 energy=113345.69870133749 pbc="F F F"
Ni       0.00000000       0.00000000       0.00000000       0.00000000       0.00000000 -779056.81250000
Ni       0.00000000       0.00000000       0.15959596       0.00000000       0.00000000  779056.81250000
2
Properties=species:S:1:pos:R:3:forces:R:3 energy=69534.77682633749 pbc="F F F"
Ni       0.00000000       0.00000000       0.00000000       0.00000000       0.00000000 -662380.37500000
Ni       0.00000000       0.00000000       0.21919192       0.00000000       0.00000000  662380.37500000
2
Properties=species:S:1:pos:R:3:forces:R:3 energy=36649.8510450875 pbc="F F F"
Ni       0.00000000       0.00000000       0.00000000       0.00000000       0.00000000 -427146.90625000
Ni       0.00000000       0.00000000       0.27878788       0.00000000       0.00000000  427146.90625000
2
Properties=species:S:1:pos:R:3:forces:R:3 energy=17152.114716962493 pbc="F F F"
Ni       0.00000000       0.00000000       0.00000000       0.00000000       0.00000000 -234834.43750000
Ni       0.00000000       0.00000000       0.33838384       0.00000000       0.00000000  234834.43750000
2
Properties=species:S:1:pos:R:3:forces:R:3 energy=7355.203584156329 pbc="F F F"
Ni       0.00000000       0.00000000       0.00000000       0.00000000       0.00000000 -108960.20312500
Ni       0.00000000       0.00000000       0.39797980       0.00000000       0.00000000  108960.20312500
2
Properties=species:S:1:pos:R:3:forces:R:3 energy=3562.464570497126 pbc="F F F"
Ni       0.00000000       0.00000000       0.00000000       0.00000000       0.00000000   -2289.05224609
Ni       0.00000000       0.00000000       0.45757576       0.00000000       0.00000000    2289.05224609
2
Properties=species:S:1:pos:R:3:forces:R:3 energy=2371.4528517724684 pbc="F F F"
Ni       0.00000000       0.00000000       0.00000000       0.00000000       0.00000000  -25973.92968750
Ni       0.00000000       0.00000000       0.51717172       0.00000000       0.00000000   25973.92968750
2
Properties=species:S:1:pos:R:3:forces:R:3 energy=1148.0258498636929 pbc="F F F"
Ni       0.00000000       0.00000000       0.00000000       0.00000000       0.00000000  -14326.80859375
Ni       0.00000000       0.00000000       0.57676768       0.00000000       0.00000000   14326.80859375
2
Properties=species:S:1:pos:R:3:forces:R:3 energy=510.6966568244862 pbc="F F F"
Ni       0.00000000       0.00000000       0.00000000       0.00000000       0.00000000   -8575.65234375
Ni       0.00000000       0.00000000       0.63636364       0.00000000       0.00000000    8575.65234375
2
Properties=species:S:1:pos:R:3:forces:R:3 energy=187.62291121098872 pbc="F F F"
Ni       0.00000000       0.00000000       0.00000000       0.00000000       0.00000000   -3220.30541992
Ni       0.00000000       0.00000000       0.69595960       0.00000000       0.00000000    3220.30541992
2
Properties=species:S:1:pos:R:3:forces:R:3 energy=59.25763887274973 pbc="F F F"
Ni       0.00000000       0.00000000       0.00000000       0.00000000       0.00000000   -1234.83496094
Ni       0.00000000       0.00000000       0.75555556       0.00000000       0.00000000    1234.83496094
2
Properties=species:S:1:pos:R:3:forces:R:3 energy=13.647894119547672 pbc="F F F"
Ni       0.00000000       0.00000000       0.00000000       0.00000000       0.00000000    -366.32662964
Ni       0.00000000       0.00000000       0.81515152       0.00000000       0.00000000     366.32662964
2
Properties=species:S:1:pos:R:3:forces:R:3 energy=1.457447661887746 pbc="F F F"
Ni       0.00000000       0.00000000       0.00000000       0.00000000       0.00000000     -75.30424500
Ni       0.00000000       0.00000000       0.87474747       0.00000000       0.00000000      75.30424500
2
Properties=species:S:1:pos:R:3:forces:R:3 energy=0.25989649212952226 pbc="F F F"
Ni       0.00000000       0.00000000       0.00000000       0.00000000       0.00000000       6.26163626
Ni       0.00000000       0.00000000       0.93434343       0.00000000       0.00000000      -6.26163626
2
Properties=species:S:1:pos:R:3:forces:R:3 energy=1.2600202858971206 pbc="F F F"
Ni       0.00000000       0.00000000       0.00000000       0.00000000       0.00000000      28.24297905
Ni       0.00000000       0.00000000       0.99393939       0.00000000       0.00000000     -28.24297905
2
Properties=species:S:1:pos:R:3:forces:R:3 energy=3.31650365267755 pbc="F F F"
Ni       0.00000000       0.00000000       0.00000000       0.00000000       0.00000000      37.64358521
Ni       0.00000000       0.00000000       1.05353535       0.00000000       0.00000000     -37.64358521
2
Properties=species:S:1:pos:R:3:forces:R:3 energy=5.430764772703572 pbc="F F F"
Ni       0.00000000       0.00000000       0.00000000       0.00000000       0.00000000      31.17621613
Ni       0.00000000       0.00000000       1.11313131       0.00000000       0.00000000     -31.17621613
2
Properties=species:S:1:pos:R:3:forces:R:3 energy=6.629927195410584 pbc="F F F"
Ni       0.00000000       0.00000000       0.00000000       0.00000000       0.00000000       8.91882420
Ni       0.00000000       0.00000000       1.17272727       0.00000000       0.00000000      -8.91882420
2
Properties=species:S:1:pos:R:3:forces:R:3 energy=6.94546799982402 pbc="F F F"
Ni       0.00000000       0.00000000       0.00000000       0.00000000       0.00000000      -0.57295108
Ni       0.00000000       0.00000000       1.23232323       0.00000000       0.00000000       0.57295108
2
Properties=species:S:1:pos:R:3:forces:R:3 energy=6.546428949430546 pbc="F F F"
Ni       0.00000000       0.00000000       0.00000000       0.00000000       0.00000000     -13.58593750
Ni       0.00000000       0.00000000       1.29191919       0.00000000       0.00000000      13.58593750
2
Properties=species:S:1:pos:R:3:forces:R:3 energy=5.405397759560089 pbc="F F F"
Ni       0.00000000       0.00000000       0.00000000       0.00000000       0.00000000     -23.47266769
Ni       0.00000000       0.00000000       1.35151515       0.00000000       0.00000000      23.47266769
2
Properties=species:S:1:pos:R:3:forces:R:3 energy=3.8632292397147916 pbc="F F F"
Ni       0.00000000       0.00000000       0.00000000       0.00000000       0.00000000     -26.90115738
Ni       0.00000000       0.00000000       1.41111111       0.00000000       0.00000000      26.90115738
2
Properties=species:S:1:pos:R:3:forces:R:3 energy=2.2982260210731664 pbc="F F F"
Ni       0.00000000       0.00000000       0.00000000       0.00000000       0.00000000     -25.14259529
Ni       0.00000000       0.00000000       1.47070707       0.00000000       0.00000000      25.14259529
2
Properties=species:S:1:pos:R:3:forces:R:3 energy=0.9088992336280843 pbc="F F F"
Ni       0.00000000       0.00000000       0.00000000       0.00000000       0.00000000     -21.28450012
Ni       0.00000000       0.00000000       1.53030303       0.00000000       0.00000000      21.28450012
2
Properties=species:S:1:pos:R:3:forces:R:3 energy=-0.23003495694070292 pbc="F F F"
Ni       0.00000000       0.00000000       0.00000000       0.00000000       0.00000000     -17.11624718
Ni       0.00000000       0.00000000       1.58989899       0.00000000       0.00000000      17.11624718
2
Properties=species:S:1:pos:R:3:forces:R:3 energy=-1.1586683184865196 pbc="F F F"
Ni       0.00000000       0.00000000       0.00000000       0.00000000       0.00000000     -14.10471725
Ni       0.00000000       0.00000000       1.64949495       0.00000000       0.00000000      14.10471725
2
Properties=species:S:1:pos:R:3:forces:R:3 energy=-1.9268379312783528 pbc="F F F"
Ni       0.00000000       0.00000000       0.00000000       0.00000000       0.00000000     -11.75856113
Ni       0.00000000       0.00000000       1.70909091       0.00000000       0.00000000      11.75856113
2
Properties=species:S:1:pos:R:3:forces:R:3 energy=-2.561838171872378 pbc="F F F"
Ni       0.00000000       0.00000000       0.00000000       0.00000000       0.00000000      -9.65107632
Ni       0.00000000       0.00000000       1.76868687       0.00000000       0.00000000       9.65107632
2
Properties=species:S:1:pos:R:3:forces:R:3 energy=-3.0910473075272944 pbc="F F F"
Ni       0.00000000       0.00000000       0.00000000       0.00000000       0.00000000      -8.07235622
Ni       0.00000000       0.00000000       1.82828283       0.00000000       0.00000000       8.07235622
2
Properties=species:S:1:pos:R:3:forces:R:3 energy=-3.517523324604169 pbc="F F F"
Ni       0.00000000       0.00000000       0.00000000       0.00000000       0.00000000      -6.31453276
Ni       0.00000000       0.00000000       1.88787879       0.00000000       0.00000000       6.31453276
2
Properties=species:S:1:pos:R:3:forces:R:3 energy=-3.8448855406204765 pbc="F F F"
Ni       0.00000000       0.00000000       0.00000000       0.00000000       0.00000000      -4.63392782
Ni       0.00000000       0.00000000       1.94747475       0.00000000       0.00000000       4.63392782
2
Properties=species:S:1:pos:R:3:forces:R:3 energy=-4.072845644807519 pbc="F F F"
Ni       0.00000000       0.00000000       0.00000000       0.00000000       0.00000000      -3.06891680
Ni       0.00000000       0.00000000       2.00707071       0.00000000       0.00000000       3.06891680
2
Properties=species:S:1:pos:R:3:forces:R:3 energy=-4.215194514891809 pbc="F F F"
Ni       0.00000000       0.00000000       0.00000000       0.00000000       0.00000000      -1.74919057
Ni       0.00000000       0.00000000       2.06666667       0.00000000       0.00000000       1.74919057
2
Properties=species:S:1:pos:R:3:forces:R:3 energy=-4.287505717319457 pbc="F F F"
Ni       0.00000000       0.00000000       0.00000000       0.00000000       0.00000000      -0.72666913
Ni       0.00000000       0.00000000       2.12626263       0.00000000       0.00000000       0.72666913
2
Properties=species:S:1:pos:R:3:forces:R:3 energy=-4.308432292830299 pbc="F F F"
Ni       0.00000000       0.00000000       0.00000000       0.00000000       0.00000000      -0.03724204
Ni       0.00000000       0.00000000       2.18585859       0.00000000       0.00000000       0.03724204
2
Properties=species:S:1:pos:R:3:forces:R:3 energy=-4.297291034734811 pbc="F F F"
Ni       0.00000000       0.00000000       0.00000000       0.00000000       0.00000000       0.37902564
Ni       0.00000000       0.00000000       2.24545455       0.00000000       0.00000000      -0.37902564
2
Properties=species:S:1:pos:R:3:forces:R:3 energy=-4.266945525074017 pbc="F F F"
Ni       0.00000000       0.00000000       0.00000000       0.00000000       0.00000000       0.61424911
Ni       0.00000000       0.00000000       2.30505051       0.00000000       0.00000000      -0.61424911
2
Properties=species:S:1:pos:R:3:forces:R:3 energy=-4.226081793572798 pbc="F F F"
Ni       0.00000000       0.00000000       0.00000000       0.00000000       0.00000000       0.74683475
Ni       0.00000000       0.00000000       2.36464646       0.00000000       0.00000000      -0.74683475
2
Properties=species:S:1:pos:R:3:forces:R:3 energy=-4.178332496192699 pbc="F F F"
Ni       0.00000000       0.00000000       0.00000000       0.00000000       0.00000000       0.85785961
Ni       0.00000000       0.00000000       2.42424242       0.00000000       0.00000000      -0.85785961
2
Properties=species:S:1:pos:R:3:forces:R:3 energy=-4.12400840231789 pbc="F F F"
Ni       0.00000000       0.00000000       0.00000000       0.00000000       0.00000000       0.95598781
Ni       0.00000000       0.00000000       2.48383838       0.00000000       0.00000000      -0.95598781
2
Properties=species:S:1:pos:R:3:forces:R:3 energy=-4.065755893394821 pbc="F F F"
Ni       0.00000000       0.00000000       0.00000000       0.00000000       0.00000000       0.98935866
Ni       0.00000000       0.00000000       2.54343434       0.00000000       0.00000000      -0.98935866
2
Properties=species:S:1:pos:R:3:forces:R:3 energy=-4.007050622366089 pbc="F F F"
Ni       0.00000000       0.00000000       0.00000000       0.00000000       0.00000000       0.97335905
Ni       0.00000000       0.00000000       2.60303030       0.00000000       0.00000000      -0.97335905
2
Properties=species:S:1:pos:R:3:forces:R:3 energy=-3.950397385989567 pbc="F F F"
Ni       0.00000000       0.00000000       0.00000000       0.00000000       0.00000000       0.92504835
Ni       0.00000000       0.00000000       2.66262626       0.00000000       0.00000000      -0.92504835
2
Properties=species:S:1:pos:R:3:forces:R:3 energy=-3.896829226712029 pbc="F F F"
Ni       0.00000000       0.00000000       0.00000000       0.00000000       0.00000000       0.87401444
Ni       0.00000000       0.00000000       2.72222222       0.00000000       0.00000000      -0.87401444
2
Properties=species:S:1:pos:R:3:forces:R:3 energy=-3.8460094998379524 pbc="F F F"
Ni       0.00000000       0.00000000       0.00000000       0.00000000       0.00000000       0.83317649
Ni       0.00000000       0.00000000       2.78181818       0.00000000       0.00000000      -0.83317649
2
Properties=species:S:1:pos:R:3:forces:R:3 energy=-3.797366577393448 pbc="F F F"
Ni       0.00000000       0.00000000       0.00000000       0.00000000       0.00000000       0.80010194
Ni       0.00000000       0.00000000       2.84141414       0.00000000       0.00000000      -0.80010194
2
Properties=species:S:1:pos:R:3:forces:R:3 energy=-3.7505838629298482 pbc="F F F"
Ni       0.00000000       0.00000000       0.00000000       0.00000000       0.00000000       0.77015567
Ni       0.00000000       0.00000000       2.90101010       0.00000000       0.00000000      -0.77015567
2
Properties=species:S:1:pos:R:3:forces:R:3 energy=-3.7055327117847465 pbc="F F F"
Ni       0.00000000       0.00000000       0.00000000       0.00000000       0.00000000       0.74221802
Ni       0.00000000       0.00000000       2.96060606       0.00000000       0.00000000      -0.74221802
2
Properties=species:S:1:pos:R:3:forces:R:3 energy=-3.662042782698439 pbc="F F F"
Ni       0.00000000       0.00000000       0.00000000       0.00000000       0.00000000       0.71795994
Ni       0.00000000       0.00000000       3.02020202       0.00000000       0.00000000      -0.71795994
2
Properties=species:S:1:pos:R:3:forces:R:3 energy=-3.61989773796032 pbc="F F F"
Ni       0.00000000       0.00000000       0.00000000       0.00000000       0.00000000       0.69653755
Ni       0.00000000       0.00000000       3.07979798       0.00000000       0.00000000      -0.69653755
2
Properties=species:S:1:pos:R:3:forces:R:3 energy=-3.5790370705758514 pbc="F F F"
Ni       0.00000000       0.00000000       0.00000000       0.00000000       0.00000000       0.67448115
Ni       0.00000000       0.00000000       3.13939394       0.00000000       0.00000000      -0.67448115
2
Properties=species:S:1:pos:R:3:forces:R:3 energy=-3.539525808435988 pbc="F F F"
Ni       0.00000000       0.00000000       0.00000000       0.00000000       0.00000000       0.65147829
Ni       0.00000000       0.00000000       3.19898990       0.00000000       0.00000000      -0.65147829
2
Properties=species:S:1:pos:R:3:forces:R:3 energy=-3.501374466276352 pbc="F F F"
Ni       0.00000000       0.00000000       0.00000000       0.00000000       0.00000000       0.62898517
Ni       0.00000000       0.00000000       3.25858586       0.00000000       0.00000000      -0.62898517
2
Properties=species:S:1:pos:R:3:forces:R:3 energy=-3.464564959610524 pbc="F F F"
Ni       0.00000000       0.00000000       0.00000000       0.00000000       0.00000000       0.60599691
Ni       0.00000000       0.00000000       3.31818182       0.00000000       0.00000000      -0.60599691
2
Properties=species:S:1:pos:R:3:forces:R:3 energy=-3.42919989277443 pbc="F F F"
Ni       0.00000000       0.00000000       0.00000000       0.00000000       0.00000000       0.58017927
Ni       0.00000000       0.00000000       3.37777778       0.00000000       0.00000000      -0.58017927
2
Properties=species:S:1:pos:R:3:forces:R:3 energy=-3.3954932122525037 pbc="F F F"
Ni       0.00000000       0.00000000       0.00000000       0.00000000       0.00000000       0.55032694
Ni       0.00000000       0.00000000       3.43737374       0.00000000       0.00000000      -0.55032694
2
Properties=species:S:1:pos:R:3:forces:R:3 energy=-3.36367779530366 pbc="F F F"
Ni       0.00000000       0.00000000       0.00000000       0.00000000       0.00000000       0.51686287
Ni       0.00000000       0.00000000       3.49696970       0.00000000       0.00000000      -0.51686287
2
Properties=species:S:1:pos:R:3:forces:R:3 energy=-3.3339354245911275 pbc="F F F"
Ni       0.00000000       0.00000000       0.00000000       0.00000000       0.00000000       0.48095566
Ni       0.00000000       0.00000000       3.55656566       0.00000000       0.00000000      -0.48095566
2
Properties=species:S:1:pos:R:3:forces:R:3 energy=-3.306378839432832 pbc="F F F"
Ni       0.00000000       0.00000000       0.00000000       0.00000000       0.00000000       0.44369906
Ni       0.00000000       0.00000000       3.61616162       0.00000000       0.00000000      -0.44369906
2
Properties=species:S:1:pos:R:3:forces:R:3 energy=-3.281058869351837 pbc="F F F"
Ni       0.00000000       0.00000000       0.00000000       0.00000000       0.00000000       0.40602630
Ni       0.00000000       0.00000000       3.67575758       0.00000000       0.00000000      -0.40602630
2
Properties=species:S:1:pos:R:3:forces:R:3 energy=-3.2579722408689142 pbc="F F F"
Ni       0.00000000       0.00000000       0.00000000       0.00000000       0.00000000       0.36894476
Ni       0.00000000       0.00000000       3.73535354       0.00000000       0.00000000      -0.36894476
2
Properties=species:S:1:pos:R:3:forces:R:3 energy=-3.237050013033506 pbc="F F F"
Ni       0.00000000       0.00000000       0.00000000       0.00000000       0.00000000       0.33352798
Ni       0.00000000       0.00000000       3.79494949       0.00000000       0.00000000      -0.33352798
2
Properties=species:S:1:pos:R:3:forces:R:3 energy=-3.218167730388222 pbc="F F F"
Ni       0.00000000       0.00000000       0.00000000       0.00000000       0.00000000       0.30064356
Ni       0.00000000       0.00000000       3.85454545       0.00000000       0.00000000      -0.30064356
2
Properties=species:S:1:pos:R:3:forces:R:3 energy=-3.2011576750151343 pbc="F F F"
Ni       0.00000000       0.00000000       0.00000000       0.00000000       0.00000000       0.27069950
Ni       0.00000000       0.00000000       3.91414141       0.00000000       0.00000000      -0.27069950
2
Properties=species:S:1:pos:R:3:forces:R:3 energy=-3.185845525976158 pbc="F F F"
Ni       0.00000000       0.00000000       0.00000000       0.00000000       0.00000000       0.24361302
Ni       0.00000000       0.00000000       3.97373737       0.00000000       0.00000000      -0.24361302
2
Properties=species:S:1:pos:R:3:forces:R:3 energy=-3.1720717092792214 pbc="F F F"
Ni       0.00000000       0.00000000       0.00000000       0.00000000       0.00000000       0.21900438
Ni       0.00000000       0.00000000       4.03333333       0.00000000       0.00000000      -0.21900438
2
Properties=species:S:1:pos:R:3:forces:R:3 energy=-3.1597012403961875 pbc="F F F"
Ni       0.00000000       0.00000000       0.00000000       0.00000000       0.00000000       0.19647238
Ni       0.00000000       0.00000000       4.09292929       0.00000000       0.00000000      -0.19647238
2
Properties=species:S:1:pos:R:3:forces:R:3 energy=-3.148617328974828 pbc="F F F"
Ni       0.00000000       0.00000000       0.00000000       0.00000000       0.00000000       0.17578894
Ni       0.00000000       0.00000000       4.15252525       0.00000000       0.00000000      -0.17578894
2
Properties=species:S:1:pos:R:3:forces:R:3 energy=-3.1387131142160247 pbc="F F F"
Ni       0.00000000       0.00000000       0.00000000       0.00000000       0.00000000       0.15692785
Ni       0.00000000       0.00000000       4.21212121       0.00000000       0.00000000      -0.15692785
2
Properties=species:S:1:pos:R:3:forces:R:3 energy=-3.1298741756182147 pbc="F F F"
Ni       0.00000000       0.00000000       0.00000000       0.00000000       0.00000000       0.13997270
Ni       0.00000000       0.00000000       4.27171717       0.00000000       0.00000000      -0.13997270
2
Properties=species:S:1:pos:R:3:forces:R:3 energy=-3.121989430539944 pbc="F F F"
Ni       0.00000000       0.00000000       0.00000000       0.00000000       0.00000000       0.12499505
Ni       0.00000000       0.00000000       4.33131313       0.00000000       0.00000000      -0.12499505
2
Properties=species:S:1:pos:R:3:forces:R:3 energy=-3.1149378984648672 pbc="F F F"
Ni       0.00000000       0.00000000       0.00000000       0.00000000       0.00000000       0.11196541
Ni       0.00000000       0.00000000       4.39090909       0.00000000       0.00000000      -0.11196541
2
Properties=species:S:1:pos:R:3:forces:R:3 energy=-3.10860910679707 pbc="F F F"
Ni       0.00000000       0.00000000       0.00000000       0.00000000       0.00000000       0.10072740
Ni       0.00000000       0.00000000       4.45050505       0.00000000       0.00000000      -0.10072740
2
Properties=species:S:1:pos:R:3:forces:R:3 energy=-3.102901482951546 pbc="F F F"
Ni       0.00000000       0.00000000       0.00000000       0.00000000       0.00000000       0.09102356
Ni       0.00000000       0.00000000       4.51010101       0.00000000       0.00000000      -0.09102356
2
Properties=species:S:1:pos:R:3:forces:R:3 energy=-3.0977330776865375 pbc="F F F"
Ni       0.00000000       0.00000000       0.00000000       0.00000000       0.00000000       0.08255076
Ni       0.00000000       0.00000000       4.56969697       0.00000000       0.00000000      -0.08255076
2
Properties=species:S:1:pos:R:3:forces:R:3 energy=-3.093041161126283 pbc="F F F"
Ni       0.00000000       0.00000000       0.00000000       0.00000000       0.00000000       0.07502464
Ni       0.00000000       0.00000000       4.62929293       0.00000000       0.00000000      -0.07502464
2
Properties=species:S:1:pos:R:3:forces:R:3 energy=-3.0887777158146865 pbc="F F F"
Ni       0.00000000       0.00000000       0.00000000       0.00000000       0.00000000       0.06822941
Ni       0.00000000       0.00000000       4.68888889       0.00000000       0.00000000      -0.06822941
2
Properties=species:S:1:pos:R:3:forces:R:3 energy=-3.0848990159899277 pbc="F F F"
Ni       0.00000000       0.00000000       0.00000000       0.00000000       0.00000000       0.06204405
Ni       0.00000000       0.00000000       4.74848485       0.00000000       0.00000000      -0.06204405
2
Properties=species:S:1:pos:R:3:forces:R:3 energy=-3.081370733409024 pbc="F F F"
Ni       0.00000000       0.00000000       0.00000000       0.00000000       0.00000000       0.05644552
Ni       0.00000000       0.00000000       4.80808081       0.00000000       0.00000000      -0.05644552
2
Properties=species:S:1:pos:R:3:forces:R:3 energy=-3.078158126508129 pbc="F F F"
Ni       0.00000000       0.00000000       0.00000000       0.00000000       0.00000000       0.05148515
Ni       0.00000000       0.00000000       4.86767677       0.00000000       0.00000000      -0.05148515
2
Properties=species:S:1:pos:R:3:forces:R:3 energy=-3.0752202454967215 pbc="F F F"
Ni       0.00000000       0.00000000       0.00000000       0.00000000       0.00000000       0.04725094
Ni       0.00000000       0.00000000       4.92727273       0.00000000       0.00000000      -0.04725094
2
Properties=species:S:1:pos:R:3:forces:R:3 energy=-3.072510030560095 pbc="F F F"
Ni       0.00000000       0.00000000       0.00000000       0.00000000       0.00000000       0.04381820
Ni       0.00000000       0.00000000       4.98686869       0.00000000       0.00000000      -0.04381820
2
Properties=species:S:1:pos:R:3:forces:R:3 energy=-3.069982041040285 pbc="F F F"
Ni       0.00000000       0.00000000       0.00000000       0.00000000       0.00000000       0.04120250
Ni       0.00000000       0.00000000       5.04646465       0.00000000       0.00000000      -0.04120250
2
Properties=species:S:1:pos:R:3:forces:R:3 energy=-3.0675848498002027 pbc="F F F"
Ni       0.00000000       0.00000000       0.00000000       0.00000000       0.00000000       0.03932638
Ni       0.00000000       0.00000000       5.10606061       0.00000000       0.00000000      -0.03932638
2
Properties=species:S:1:pos:R:3:forces:R:3 energy=-3.0652817087803714 pbc="F F F"
Ni       0.00000000       0.00000000       0.00000000       0.00000000       0.00000000       0.03800888
Ni       0.00000000       0.00000000       5.16565657       0.00000000       0.00000000      -0.03800888
2
Properties=species:S:1:pos:R:3:forces:R:3 energy=-3.0630487081745534 pbc="F F F"
Ni       0.00000000       0.00000000       0.00000000       0.00000000       0.00000000       0.03698608
Ni       0.00000000       0.00000000       5.22525253       0.00000000       0.00000000      -0.03698608
2
Properties=species:S:1:pos:R:3:forces:R:3 energy=-3.0608738686888595 pbc="F F F"
Ni       0.00000000       0.00000000       0.00000000       0.00000000       0.00000000       0.03595432
Ni       0.00000000       0.00000000       5.28484848       0.00000000       0.00000000      -0.03595432
2
Properties=species:S:1:pos:R:3:forces:R:3 energy=-3.05876824976447 pbc="F F F"
Ni       0.00000000       0.00000000       0.00000000       0.00000000       0.00000000       0.03463151
Ni       0.00000000       0.00000000       5.34444444       0.00000000       0.00000000      -0.03463151
2
Properties=species:S:1:pos:R:3:forces:R:3 energy=-3.056755962923803 pbc="F F F"
Ni       0.00000000       0.00000000       0.00000000       0.00000000       0.00000000       0.03281518
Ni       0.00000000       0.00000000       5.40404040       0.00000000       0.00000000      -0.03281518
2
Properties=species:S:1:pos:R:3:forces:R:3 energy=-3.05486806950603 pbc="F F F"
Ni       0.00000000       0.00000000       0.00000000       0.00000000       0.00000000       0.03042600
Ni       0.00000000       0.00000000       5.46363636       0.00000000       0.00000000      -0.03042600
2
Properties=species:S:1:pos:R:3:forces:R:3 energy=-3.0531392871564837 pbc="F F F"
Ni       0.00000000       0.00000000       0.00000000       0.00000000       0.00000000       0.02751937
Ni       0.00000000       0.00000000       5.52323232       0.00000000       0.00000000      -0.02751937
2
Properties=species:S:1:pos:R:3:forces:R:3 energy=-3.0515966201786764 pbc="F F F"
Ni       0.00000000       0.00000000       0.00000000       0.00000000       0.00000000       0.02427092
Ni       0.00000000       0.00000000       5.58282828       0.00000000       0.00000000      -0.02427092
2
Properties=species:S:1:pos:R:3:forces:R:3 energy=-3.0502493380344258 pbc="F F F"
Ni       0.00000000       0.00000000       0.00000000       0.00000000       0.00000000       0.02093527
Ni       0.00000000       0.00000000       5.64242424       0.00000000       0.00000000      -0.02093527
2
Properties=species:S:1:pos:R:3:forces:R:3 energy=-3.0490967029408704 pbc="F F F"
Ni       0.00000000       0.00000000       0.00000000       0.00000000       0.00000000       0.01778656
Ni       0.00000000       0.00000000       5.70202020       0.00000000       0.00000000      -0.01778656
2
Properties=species:S:1:pos:R:3:forces:R:3 energy=-3.048120823648744 pbc="F F F"
Ni       0.00000000       0.00000000       0.00000000       0.00000000       0.00000000       0.01506648
Ni       0.00000000       0.00000000       5.76161616       0.00000000       0.00000000      -0.01506648
2
Properties=species:S:1:pos:R:3:forces:R:3 energy=-3.0472895212170537 pbc="F F F"
Ni       0.00000000       0.00000000       0.00000000       0.00000000       0.00000000       0.01292513
Ni       0.00000000       0.00000000       5.82121212       0.00000000       0.00000000      -0.01292513
2
Properties=species:S:1:pos:R:3:forces:R:3 energy=-3.0465673580402544 pbc="F F F"
Ni       0.00000000       0.00000000       0.00000000       0.00000000       0.00000000       0.01139994
Ni       0.00000000       0.00000000       5.88080808       0.00000000       0.00000000      -0.01139994
2
Properties=species:S:1:pos:R:3:forces:R:3 energy=-3.0459199008722715 pbc="F F F"
Ni       0.00000000       0.00000000       0.00000000       0.00000000       0.00000000       0.01039641
Ni       0.00000000       0.00000000       5.94040404       0.00000000       0.00000000      -0.01039641
2
Properties=species:S:1:pos:R:3:forces:R:3 energy=-3.0453218793272563 pbc="F F F"
Ni       0.00000000       0.00000000       0.00000000       0.00000000       0.00000000       0.00971282
Ni       0.00000000       0.00000000       6.00000000       0.00000000       0.00000000      -0.00971282
