2
Properties=species:S:1:pos:R:3:forces:R:3 energy=-7900647.630174276 pbc="F F F"
Np       0.00000000       0.00000000       0.00000000       0.00000000       0.00000000 78782160.00000000
Np       0.00000000       0.00000000       0.18000000       0.00000000       0.00000000 -78782160.00000000
2
Properties=species:S:1:pos:R:3:forces:R:3 energy=-3859646.1301742764 pbc="F F F"
Np       0.00000000       0.00000000       0.00000000       0.00000000       0.00000000 56398928.00000000
Np       0.00000000       0.00000000       0.23878788       0.00000000       0.00000000 -56398928.00000000
2
Properties=species:S:1:pos:R:3:forces:R:3 energy=-1373422.2551742764 pbc="F F F"
Np       0.00000000       0.00000000       0.00000000       0.00000000       0.00000000 28696834.00000000
Np       0.00000000       0.00000000       0.29757576       0.00000000       0.00000000 -28696834.00000000
2
Properties=species:S:1:pos:R:3:forces:R:3 energy=-314303.1614242765 pbc="F F F"
Np       0.00000000       0.00000000       0.00000000       0.00000000       0.00000000 9185006.00000000
Np       0.00000000       0.00000000       0.35636364       0.00000000       0.00000000 -9185006.00000000
2
Properties=species:S:1:pos:R:3:forces:R:3 energy=-40860.83720552648 pbc="F F F"
Np       0.00000000       0.00000000       0.00000000       0.00000000       0.00000000 1767376.37500000
Np       0.00000000       0.00000000       0.41515152       0.00000000       0.00000000 -1767376.37500000
2
Properties=species:S:1:pos:R:3:forces:R:3 energy=12.828485849252278 pbc="F F F"
Np       0.00000000       0.00000000       0.00000000       0.00000000       0.00000000  106294.70312500
Np       0.00000000       0.00000000       0.47393939       0.00000000       0.00000000 -106294.70312500
2
Properties=species:S:1:pos:R:3:forces:R:3 energy=3579.5917495769872 pbc="F F F"
Np       0.00000000       0.00000000       0.00000000       0.00000000       0.00000000  -10666.82519531
Np       0.00000000       0.00000000       0.53272727       0.00000000       0.00000000   10666.82519531
2
Properties=species:S:1:pos:R:3:forces:R:3 energy=1088.439772075939 pbc="F F F"
Np       0.00000000       0.00000000       0.00000000       0.00000000       0.00000000  -34776.56640625
Np       0.00000000       0.00000000       0.59151515       0.00000000       0.00000000   34776.56640625
2
Properties=species:S:1:pos:R:3:forces:R:3 energy=146.7934250807255 pbc="F F F"
Np       0.00000000       0.00000000       0.00000000       0.00000000       0.00000000   -3391.86401367
Np       0.00000000       0.00000000       0.65030303       0.00000000       0.00000000    3391.86401367
2
Properties=species:S:1:pos:R:3:forces:R:3 energy=55.18689210621614 pbc="F F F"
Np       0.00000000       0.00000000       0.00000000       0.00000000       0.00000000    -619.90582275
Np       0.00000000       0.00000000       0.70909091       0.00000000       0.00000000     619.90582275
2
Properties=species:S:1:pos:R:3:forces:R:3 energy=30.259569832562423 pbc="F F F"
Np       0.00000000       0.00000000       0.00000000       0.00000000       0.00000000    -274.80749512
Np       0.00000000       0.00000000       0.76787879       0.00000000       0.00000000     274.80749512
2
Properties=species:S:1:pos:R:3:forces:R:3 energy=20.65073669697218 pbc="F F F"
Np       0.00000000       0.00000000       0.00000000       0.00000000       0.00000000     -71.80665588
Np       0.00000000       0.00000000       0.82666667       0.00000000       0.00000000      71.80665588
2
Properties=species:S:1:pos:R:3:forces:R:3 energy=18.634917426179985 pbc="F F F"
Np       0.00000000       0.00000000       0.00000000       0.00000000       0.00000000       7.75753832
Np       0.00000000       0.00000000       0.88545455       0.00000000       0.00000000      -7.75753832
2
Properties=species:S:1:pos:R:3:forces:R:3 energy=19.512897059540517 pbc="F F F"
Np       0.00000000       0.00000000       0.00000000       0.00000000       0.00000000     -11.38196945
Np       0.00000000       0.00000000       0.94424242       0.00000000       0.00000000      11.38196945
2
Properties=species:S:1:pos:R:3:forces:R:3 energy=17.46741873291999 pbc="F F F"
Np       0.00000000       0.00000000       0.00000000       0.00000000       0.00000000       9.96836948
Np       0.00000000       0.00000000       1.00303030       0.00000000       0.00000000      -9.96836948
2
Properties=species:S:1:pos:R:3:forces:R:3 energy=17.729454774371334 pbc="F F F"
Np       0.00000000       0.00000000       0.00000000       0.00000000       0.00000000     -42.02490234
Np       0.00000000       0.00000000       1.06181818       0.00000000       0.00000000      42.02490234
2
Properties=species:S:1:pos:R:3:forces:R:3 energy=11.432294559066614 pbc="F F F"
Np       0.00000000       0.00000000       0.00000000       0.00000000       0.00000000    -154.51023865
Np       0.00000000       0.00000000       1.12060606       0.00000000       0.00000000     154.51023865
2
Properties=species:S:1:pos:R:3:forces:R:3 energy=2.1198376864950865 pbc="F F F"
Np       0.00000000       0.00000000       0.00000000       0.00000000       0.00000000    -139.70030212
Np       0.00000000       0.00000000       1.17939394       0.00000000       0.00000000     139.70030212
2
Properties=species:S:1:pos:R:3:forces:R:3 energy=-5.495416148785243 pbc="F F F"
Np       0.00000000       0.00000000       0.00000000       0.00000000       0.00000000    -105.60577393
Np       0.00000000       0.00000000       1.23818182       0.00000000       0.00000000     105.60577393
2
Properties=species:S:1:pos:R:3:forces:R:3 energy=-10.184627034492932 pbc="F F F"
Np       0.00000000       0.00000000       0.00000000       0.00000000       0.00000000     -58.57769775
Np       0.00000000       0.00000000       1.29696970       0.00000000       0.00000000      58.57769775
2
Properties=species:S:1:pos:R:3:forces:R:3 energy=-12.623663819280914 pbc="F F F"
Np       0.00000000       0.00000000       0.00000000       0.00000000       0.00000000     -27.80020142
Np       0.00000000       0.00000000       1.35575758       0.00000000       0.00000000      27.80020142
2
Properties=species:S:1:pos:R:3:forces:R:3 energy=-14.085525224264622 pbc="F F F"
Np       0.00000000       0.00000000       0.00000000       0.00000000       0.00000000     -24.24272346
Np       0.00000000       0.00000000       1.41454545       0.00000000       0.00000000      24.24272346
2
Properties=species:S:1:pos:R:3:forces:R:3 energy=-15.418273663332535 pbc="F F F"
Np       0.00000000       0.00000000       0.00000000       0.00000000       0.00000000     -19.66855812
Np       0.00000000       0.00000000       1.47333333       0.00000000       0.00000000      19.66855812
2
Properties=species:S:1:pos:R:3:forces:R:3 energy=-16.307211718804194 pbc="F F F"
Np       0.00000000       0.00000000       0.00000000       0.00000000       0.00000000     -12.16437626
Np       0.00000000       0.00000000       1.53212121       0.00000000       0.00000000      12.16437626
2
Properties=species:S:1:pos:R:3:forces:R:3 energy=-17.002360194116513 pbc="F F F"
Np       0.00000000       0.00000000       0.00000000       0.00000000       0.00000000     -11.40965462
Np       0.00000000       0.00000000       1.59090909       0.00000000       0.00000000      11.40965462
2
Properties=species:S:1:pos:R:3:forces:R:3 energy=-17.612622796759155 pbc="F F F"
Np       0.00000000       0.00000000       0.00000000       0.00000000       0.00000000      -9.32373714
Np       0.00000000       0.00000000       1.64969697       0.00000000       0.00000000       9.32373714
2
Properties=species:S:1:pos:R:3:forces:R:3 energy=-18.136688988152045 pbc="F F F"
Np       0.00000000       0.00000000       0.00000000       0.00000000       0.00000000      -8.80108547
Np       0.00000000       0.00000000       1.70848485       0.00000000       0.00000000       8.80108547
2
Properties=species:S:1:pos:R:3:forces:R:3 energy=-18.61816621399011 pbc="F F F"
Np       0.00000000       0.00000000       0.00000000       0.00000000       0.00000000      -7.23605824
Np       0.00000000       0.00000000       1.76727273       0.00000000       0.00000000       7.23605824
2
Properties=species:S:1:pos:R:3:forces:R:3 energy=-18.982410132102473 pbc="F F F"
Np       0.00000000       0.00000000       0.00000000       0.00000000       0.00000000      -4.92778873
Np       0.00000000       0.00000000       1.82606061       0.00000000       0.00000000       4.92778873
2
Properties=species:S:1:pos:R:3:forces:R:3 energy=-19.180510297386984 pbc="F F F"
Np       0.00000000       0.00000000       0.00000000       0.00000000       0.00000000      -1.93699205
Np       0.00000000       0.00000000       1.88484848       0.00000000       0.00000000       1.93699205
2
Properties=species:S:1:pos:R:3:forces:R:3 energy=-19.2409583542671 pbc="F F F"
Np       0.00000000       0.00000000       0.00000000       0.00000000       0.00000000      -0.31729534
Np       0.00000000       0.00000000       1.94363636       0.00000000       0.00000000       0.31729534
2
Properties=species:S:1:pos:R:3:forces:R:3 energy=-19.22955554308756 pbc="F F F"
Np       0.00000000       0.00000000       0.00000000       0.00000000       0.00000000       0.70554632
Np       0.00000000       0.00000000       2.00242424       0.00000000       0.00000000      -0.70554632
2
Properties=species:S:1:pos:R:3:forces:R:3 energy=-19.16618935721889 pbc="F F F"
Np       0.00000000       0.00000000       0.00000000       0.00000000       0.00000000       1.32071602
Np       0.00000000       0.00000000       2.06121212       0.00000000       0.00000000      -1.32071602
2
Properties=species:S:1:pos:R:3:forces:R:3 energy=-19.078269847696845 pbc="F F F"
Np       0.00000000       0.00000000       0.00000000       0.00000000       0.00000000       1.67711520
Np       0.00000000       0.00000000       2.12000000       0.00000000       0.00000000      -1.67711520
2
Properties=species:S:1:pos:R:3:forces:R:3 energy=-18.976820957424962 pbc="F F F"
Np       0.00000000       0.00000000       0.00000000       0.00000000       0.00000000       1.67936552
Np       0.00000000       0.00000000       2.17878788       0.00000000       0.00000000      -1.67936552
2
Properties=species:S:1:pos:R:3:forces:R:3 energy=-18.88047121563451 pbc="F F F"
Np       0.00000000       0.00000000       0.00000000       0.00000000       0.00000000       1.65996301
Np       0.00000000       0.00000000       2.23757576       0.00000000       0.00000000      -1.65996301
2
Properties=species:S:1:pos:R:3:forces:R:3 energy=-18.780785667764192 pbc="F F F"
Np       0.00000000       0.00000000       0.00000000       0.00000000       0.00000000       1.71218145
Np       0.00000000       0.00000000       2.29636364       0.00000000       0.00000000      -1.71218145
2
Properties=species:S:1:pos:R:3:forces:R:3 energy=-18.67914836467184 pbc="F F F"
Np       0.00000000       0.00000000       0.00000000       0.00000000       0.00000000       1.74729609
Np       0.00000000       0.00000000       2.35515152       0.00000000       0.00000000      -1.74729609
2
Properties=species:S:1:pos:R:3:forces:R:3 energy=-18.577551725401424 pbc="F F F"
Np       0.00000000       0.00000000       0.00000000       0.00000000       0.00000000       1.68315315
Np       0.00000000       0.00000000       2.41393939       0.00000000       0.00000000      -1.68315315
2
Properties=species:S:1:pos:R:3:forces:R:3 energy=-18.48354231753052 pbc="F F F"
Np       0.00000000       0.00000000       0.00000000       0.00000000       0.00000000       1.49878001
Np       0.00000000       0.00000000       2.47272727       0.00000000       0.00000000      -1.49878001
2
Properties=species:S:1:pos:R:3:forces:R:3 energy=-18.40266384051678 pbc="F F F"
Np       0.00000000       0.00000000       0.00000000       0.00000000       0.00000000       1.24673593
Np       0.00000000       0.00000000       2.53151515       0.00000000       0.00000000      -1.24673593
2
Properties=species:S:1:pos:R:3:forces:R:3 energy=-18.33812541176258 pbc="F F F"
Np       0.00000000       0.00000000       0.00000000       0.00000000       0.00000000       0.93248183
Np       0.00000000       0.00000000       2.59030303       0.00000000       0.00000000      -0.93248183
2
Properties=species:S:1:pos:R:3:forces:R:3 energy=-18.294768687044524 pbc="F F F"
Np       0.00000000       0.00000000       0.00000000       0.00000000       0.00000000       0.53657883
Np       0.00000000       0.00000000       2.64909091       0.00000000       0.00000000      -0.53657883
2
Properties=species:S:1:pos:R:3:forces:R:3 energy=-18.274406414496447 pbc="F F F"
Np       0.00000000       0.00000000       0.00000000       0.00000000       0.00000000       0.16948795
Np       0.00000000       0.00000000       2.70787879       0.00000000       0.00000000      -0.16948795
2
Properties=species:S:1:pos:R:3:forces:R:3 energy=-18.273022383459995 pbc="F F F"
Np       0.00000000       0.00000000       0.00000000       0.00000000       0.00000000      -0.10722741
Np       0.00000000       0.00000000       2.76666667       0.00000000       0.00000000       0.10722741
2
Properties=species:S:1:pos:R:3:forces:R:3 energy=-18.28542903046178 pbc="F F F"
Np       0.00000000       0.00000000       0.00000000       0.00000000       0.00000000      -0.30336240
Np       0.00000000       0.00000000       2.82545455       0.00000000       0.00000000       0.30336240
2
Properties=species:S:1:pos:R:3:forces:R:3 energy=-18.307569976480572 pbc="F F F"
Np       0.00000000       0.00000000       0.00000000       0.00000000       0.00000000      -0.44242916
Np       0.00000000       0.00000000       2.88424242       0.00000000       0.00000000       0.44242916
2
Properties=species:S:1:pos:R:3:forces:R:3 energy=-18.336742819269944 pbc="F F F"
Np       0.00000000       0.00000000       0.00000000       0.00000000       0.00000000      -0.54476655
Np       0.00000000       0.00000000       2.94303030       0.00000000       0.00000000       0.54476655
2
Properties=species:S:1:pos:R:3:forces:R:3 energy=-18.371023228112765 pbc="F F F"
Np       0.00000000       0.00000000       0.00000000       0.00000000       0.00000000      -0.61603218
Np       0.00000000       0.00000000       3.00181818       0.00000000       0.00000000       0.61603218
2
Properties=species:S:1:pos:R:3:forces:R:3 energy=-18.408547869434305 pbc="F F F"
Np       0.00000000       0.00000000       0.00000000       0.00000000       0.00000000      -0.65589356
Np       0.00000000       0.00000000       3.06060606       0.00000000       0.00000000       0.65589356
2
Properties=species:S:1:pos:R:3:forces:R:3 energy=-18.44768208875514 pbc="F F F"
Np       0.00000000       0.00000000       0.00000000       0.00000000       0.00000000      -0.67247444
Np       0.00000000       0.00000000       3.11939394       0.00000000       0.00000000       0.67247444
2
Properties=species:S:1:pos:R:3:forces:R:3 energy=-18.487294771634915 pbc="F F F"
Np       0.00000000       0.00000000       0.00000000       0.00000000       0.00000000      -0.67243946
Np       0.00000000       0.00000000       3.17818182       0.00000000       0.00000000       0.67243946
2
Properties=species:S:1:pos:R:3:forces:R:3 energy=-18.52639374864383 pbc="F F F"
Np       0.00000000       0.00000000       0.00000000       0.00000000       0.00000000      -0.65453017
Np       0.00000000       0.00000000       3.23696970       0.00000000       0.00000000       0.65453017
2
Properties=species:S:1:pos:R:3:forces:R:3 energy=-18.56387624947396 pbc="F F F"
Np       0.00000000       0.00000000       0.00000000       0.00000000       0.00000000      -0.61772758
Np       0.00000000       0.00000000       3.29575758       0.00000000       0.00000000       0.61772758
2
Properties=species:S:1:pos:R:3:forces:R:3 energy=-18.5987117929961 pbc="F F F"
Np       0.00000000       0.00000000       0.00000000       0.00000000       0.00000000      -0.56513125
Np       0.00000000       0.00000000       3.35454545       0.00000000       0.00000000       0.56513125
2
Properties=species:S:1:pos:R:3:forces:R:3 energy=-18.630132934794325 pbc="F F F"
Np       0.00000000       0.00000000       0.00000000       0.00000000       0.00000000      -0.50286955
Np       0.00000000       0.00000000       3.41333333       0.00000000       0.00000000       0.50286955
2
Properties=species:S:1:pos:R:3:forces:R:3 energy=-18.657759384211317 pbc="F F F"
Np       0.00000000       0.00000000       0.00000000       0.00000000       0.00000000      -0.43644735
Np       0.00000000       0.00000000       3.47212121       0.00000000       0.00000000       0.43644735
2
Properties=species:S:1:pos:R:3:forces:R:3 energy=-18.681420532226475 pbc="F F F"
Np       0.00000000       0.00000000       0.00000000       0.00000000       0.00000000      -0.36845401
Np       0.00000000       0.00000000       3.53090909       0.00000000       0.00000000       0.36845401
2
Properties=species:S:1:pos:R:3:forces:R:3 energy=-18.70107534281334 pbc="F F F"
Np       0.00000000       0.00000000       0.00000000       0.00000000       0.00000000      -0.30017287
Np       0.00000000       0.00000000       3.58969697       0.00000000       0.00000000       0.30017287
2
Properties=species:S:1:pos:R:3:forces:R:3 energy=-18.716745659093903 pbc="F F F"
Np       0.00000000       0.00000000       0.00000000       0.00000000       0.00000000      -0.23344558
Np       0.00000000       0.00000000       3.64848485       0.00000000       0.00000000       0.23344558
2
Properties=species:S:1:pos:R:3:forces:R:3 energy=-18.72859446798897 pbc="F F F"
Np       0.00000000       0.00000000       0.00000000       0.00000000       0.00000000      -0.17039531
Np       0.00000000       0.00000000       3.70727273       0.00000000       0.00000000       0.17039531
2
Properties=species:S:1:pos:R:3:forces:R:3 energy=-18.736880060494556 pbc="F F F"
Np       0.00000000       0.00000000       0.00000000       0.00000000       0.00000000      -0.11239802
Np       0.00000000       0.00000000       3.76606061       0.00000000       0.00000000       0.11239802
2
Properties=species:S:1:pos:R:3:forces:R:3 energy=-18.74191410802581 pbc="F F F"
Np       0.00000000       0.00000000       0.00000000       0.00000000       0.00000000      -0.05977597
Np       0.00000000       0.00000000       3.82484848       0.00000000       0.00000000       0.05977597
2
Properties=species:S:1:pos:R:3:forces:R:3 energy=-18.744008231312733 pbc="F F F"
Np       0.00000000       0.00000000       0.00000000       0.00000000       0.00000000      -0.01219559
Np       0.00000000       0.00000000       3.88363636       0.00000000       0.00000000       0.01219559
2
Properties=species:S:1:pos:R:3:forces:R:3 energy=-18.743436005482973 pbc="F F F"
Np       0.00000000       0.00000000       0.00000000       0.00000000       0.00000000       0.03085944
Np       0.00000000       0.00000000       3.94242424       0.00000000       0.00000000      -0.03085944
2
Properties=species:S:1:pos:R:3:forces:R:3 energy=-18.740459548901093 pbc="F F F"
Np       0.00000000       0.00000000       0.00000000       0.00000000       0.00000000       0.06986922
Np       0.00000000       0.00000000       4.00121212       0.00000000       0.00000000      -0.06986922
2
Properties=species:S:1:pos:R:3:forces:R:3 energy=-18.73529338491486 pbc="F F F"
Np       0.00000000       0.00000000       0.00000000       0.00000000       0.00000000       0.10527478
Np       0.00000000       0.00000000       4.06000000       0.00000000       0.00000000      -0.10527478
2
Properties=species:S:1:pos:R:3:forces:R:3 energy=-18.728142677526918 pbc="F F F"
Np       0.00000000       0.00000000       0.00000000       0.00000000       0.00000000       0.13745837
Np       0.00000000       0.00000000       4.11878788       0.00000000       0.00000000      -0.13745837
2
Properties=species:S:1:pos:R:3:forces:R:3 energy=-18.71918789657798 pbc="F F F"
Np       0.00000000       0.00000000       0.00000000       0.00000000       0.00000000       0.16662930
Np       0.00000000       0.00000000       4.17757576       0.00000000       0.00000000      -0.16662930
2
Properties=species:S:1:pos:R:3:forces:R:3 energy=-18.70861172336834 pbc="F F F"
Np       0.00000000       0.00000000       0.00000000       0.00000000       0.00000000       0.19270188
Np       0.00000000       0.00000000       4.23636364       0.00000000       0.00000000      -0.19270188
2
Properties=species:S:1:pos:R:3:forces:R:3 energy=-18.696598898602367 pbc="F F F"
Np       0.00000000       0.00000000       0.00000000       0.00000000       0.00000000       0.21530659
Np       0.00000000       0.00000000       4.29515152       0.00000000       0.00000000      -0.21530659
2
Properties=species:S:1:pos:R:3:forces:R:3 energy=-18.68337468614341 pbc="F F F"
Np       0.00000000       0.00000000       0.00000000       0.00000000       0.00000000       0.23395424
Np       0.00000000       0.00000000       4.35393939       0.00000000       0.00000000      -0.23395424
2
Properties=species:S:1:pos:R:3:forces:R:3 energy=-18.66917795472101 pbc="F F F"
Np       0.00000000       0.00000000       0.00000000       0.00000000       0.00000000       0.24825089
Np       0.00000000       0.00000000       4.41272727       0.00000000       0.00000000      -0.24825089
2
Properties=species:S:1:pos:R:3:forces:R:3 energy=-18.65427281209205 pbc="F F F"
Np       0.00000000       0.00000000       0.00000000       0.00000000       0.00000000       0.25805825
Np       0.00000000       0.00000000       4.47151515       0.00000000       0.00000000      -0.25805825
2
Properties=species:S:1:pos:R:3:forces:R:3 energy=-18.63892009618154 pbc="F F F"
Np       0.00000000       0.00000000       0.00000000       0.00000000       0.00000000       0.26353255
Np       0.00000000       0.00000000       4.53030303       0.00000000       0.00000000      -0.26353255
2
Properties=species:S:1:pos:R:3:forces:R:3 energy=-18.623363934943193 pbc="F F F"
Np       0.00000000       0.00000000       0.00000000       0.00000000       0.00000000       0.26506296
Np       0.00000000       0.00000000       4.58909091       0.00000000       0.00000000      -0.26506296
2
Properties=species:S:1:pos:R:3:forces:R:3 energy=-18.607822304650913 pbc="F F F"
Np       0.00000000       0.00000000       0.00000000       0.00000000       0.00000000       0.26319405
Np       0.00000000       0.00000000       4.64787879       0.00000000       0.00000000      -0.26319405
2
Properties=species:S:1:pos:R:3:forces:R:3 energy=-18.592473798835616 pbc="F F F"
Np       0.00000000       0.00000000       0.00000000       0.00000000       0.00000000       0.25853184
Np       0.00000000       0.00000000       4.70666667       0.00000000       0.00000000      -0.25853184
2
Properties=species:S:1:pos:R:3:forces:R:3 energy=-18.577467076329363 pbc="F F F"
Np       0.00000000       0.00000000       0.00000000       0.00000000       0.00000000       0.25172862
Np       0.00000000       0.00000000       4.76545455       0.00000000       0.00000000      -0.25172862
2
Properties=species:S:1:pos:R:3:forces:R:3 energy=-18.562905665832748 pbc="F F F"
Np       0.00000000       0.00000000       0.00000000       0.00000000       0.00000000       0.24344976
Np       0.00000000       0.00000000       4.82424242       0.00000000       0.00000000      -0.24344976
2
Properties=species:S:1:pos:R:3:forces:R:3 energy=-18.548861412389986 pbc="F F F"
Np       0.00000000       0.00000000       0.00000000       0.00000000       0.00000000       0.23434341
Np       0.00000000       0.00000000       4.88303030       0.00000000       0.00000000      -0.23434341
2
Properties=species:S:1:pos:R:3:forces:R:3 energy=-18.535360954886094 pbc="F F F"
Np       0.00000000       0.00000000       0.00000000       0.00000000       0.00000000       0.22498587
Np       0.00000000       0.00000000       4.94181818       0.00000000       0.00000000      -0.22498587
2
Properties=species:S:1:pos:R:3:forces:R:3 energy=-18.522404900903528 pbc="F F F"
Np       0.00000000       0.00000000       0.00000000       0.00000000       0.00000000       0.21579120
Np       0.00000000       0.00000000       5.00060606       0.00000000       0.00000000      -0.21579120
2
Properties=species:S:1:pos:R:3:forces:R:3 energy=-18.509979264478325 pbc="F F F"
Np       0.00000000       0.00000000       0.00000000       0.00000000       0.00000000       0.20693417
Np       0.00000000       0.00000000       5.05939394       0.00000000       0.00000000      -0.20693417
2
Properties=species:S:1:pos:R:3:forces:R:3 energy=-18.498068678156375 pbc="F F F"
Np       0.00000000       0.00000000       0.00000000       0.00000000       0.00000000       0.19830197
Np       0.00000000       0.00000000       5.11818182       0.00000000       0.00000000      -0.19830197
2
Properties=species:S:1:pos:R:3:forces:R:3 energy=-18.486665936072214 pbc="F F F"
Np       0.00000000       0.00000000       0.00000000       0.00000000       0.00000000       0.18953149
Np       0.00000000       0.00000000       5.17696970       0.00000000       0.00000000      -0.18953149
2
Properties=species:S:1:pos:R:3:forces:R:3 energy=-18.475798633473445 pbc="F F F"
Np       0.00000000       0.00000000       0.00000000       0.00000000       0.00000000       0.18009254
Np       0.00000000       0.00000000       5.23575758       0.00000000       0.00000000      -0.18009254
2
Properties=species:S:1:pos:R:3:forces:R:3 energy=-18.46551570123872 pbc="F F F"
Np       0.00000000       0.00000000       0.00000000       0.00000000       0.00000000       0.16943827
Np       0.00000000       0.00000000       5.29454545       0.00000000       0.00000000      -0.16943827
2
Properties=species:S:1:pos:R:3:forces:R:3 energy=-18.455908355034463 pbc="F F F"
Np       0.00000000       0.00000000       0.00000000       0.00000000       0.00000000       0.15716109
Np       0.00000000       0.00000000       5.35333333       0.00000000       0.00000000      -0.15716109
2
Properties=species:S:1:pos:R:3:forces:R:3 energy=-18.447073697299754 pbc="F F F"
Np       0.00000000       0.00000000       0.00000000       0.00000000       0.00000000       0.14312783
Np       0.00000000       0.00000000       5.41212121       0.00000000       0.00000000      -0.14312783
2
Properties=species:S:1:pos:R:3:forces:R:3 energy=-18.439108944515272 pbc="F F F"
Np       0.00000000       0.00000000       0.00000000       0.00000000       0.00000000       0.12756556
Np       0.00000000       0.00000000       5.47090909       0.00000000       0.00000000      -0.12756556
2
Properties=species:S:1:pos:R:3:forces:R:3 energy=-18.432094153359635 pbc="F F F"
Np       0.00000000       0.00000000       0.00000000       0.00000000       0.00000000       0.11104824
Np       0.00000000       0.00000000       5.52969697       0.00000000       0.00000000      -0.11104824
2
Properties=species:S:1:pos:R:3:forces:R:3 energy=-18.42605583536558 pbc="F F F"
Np       0.00000000       0.00000000       0.00000000       0.00000000       0.00000000       0.09444419
Np       0.00000000       0.00000000       5.58848485       0.00000000       0.00000000      -0.09444419
2
Properties=species:S:1:pos:R:3:forces:R:3 energy=-18.420970809631076 pbc="F F F"
Np       0.00000000       0.00000000       0.00000000       0.00000000       0.00000000       0.07877205
Np       0.00000000       0.00000000       5.64727273       0.00000000       0.00000000      -0.07877205
2
Properties=species:S:1:pos:R:3:forces:R:3 energy=-18.416754524308693 pbc="F F F"
Np       0.00000000       0.00000000       0.00000000       0.00000000       0.00000000       0.06503513
Np       0.00000000       0.00000000       5.70606061       0.00000000       0.00000000      -0.06503513
2
Properties=species:S:1:pos:R:3:forces:R:3 energy=-18.413272456347894 pbc="F F F"
Np       0.00000000       0.00000000       0.00000000       0.00000000       0.00000000       0.05400094
Np       0.00000000       0.00000000       5.76484848       0.00000000       0.00000000      -0.05400094
2
Properties=species:S:1:pos:R:3:forces:R:3 energy=-18.4103440275626 pbc="F F F"
Np       0.00000000       0.00000000       0.00000000       0.00000000       0.00000000       0.04609948
Np       0.00000000       0.00000000       5.82363636       0.00000000       0.00000000      -0.04609948
2
Properties=species:S:1:pos:R:3:forces:R:3 energy=-18.407791878913443 pbc="F F F"
Np       0.00000000       0.00000000       0.00000000       0.00000000       0.00000000       0.04123663
Np       0.00000000       0.00000000       5.88242424       0.00000000       0.00000000      -0.04123663
2
Properties=species:S:1:pos:R:3:forces:R:3 energy=-18.405449613943873 pbc="F F F"
Np       0.00000000       0.00000000       0.00000000       0.00000000       0.00000000       0.03880046
Np       0.00000000       0.00000000       5.94121212       0.00000000       0.00000000      -0.03880046
2
Properties=species:S:1:pos:R:3:forces:R:3 energy=-18.40320375411446 pbc="F F F"
Np       0.00000000       0.00000000       0.00000000       0.00000000       0.00000000       0.03771560
Np       0.00000000       0.00000000       6.00000000       0.00000000       0.00000000      -0.03771560
