2
Properties=species:S:1:pos:R:3:forces:R:3 energy=-14323813.130174277 pbc="F F F"
Np       0.00000000       0.00000000       0.00000000       0.00000000       0.00000000 72725336.00000000
Np       0.00000000       0.00000000       0.10000000       0.00000000       0.00000000 -72725336.00000000
2
Properties=species:S:1:pos:R:3:forces:R:3 energy=-9548731.130174277 pbc="F F F"
Np       0.00000000       0.00000000       0.00000000       0.00000000       0.00000000 82277400.00000000
Np       0.00000000       0.00000000       0.15959596       0.00000000       0.00000000 -82277400.00000000
2
Properties=species:S:1:pos:R:3:forces:R:3 energy=-5053467.630174276 pbc="F F F"
Np       0.00000000       0.00000000       0.00000000       0.00000000       0.00000000 65289856.00000000
Np       0.00000000       0.00000000       0.21919192       0.00000000       0.00000000 -65289856.00000000
2
Properties=species:S:1:pos:R:3:forces:R:3 energy=-1990333.7551742764 pbc="F F F"
Np       0.00000000       0.00000000       0.00000000       0.00000000       0.00000000 37111740.00000000
Np       0.00000000       0.00000000       0.27878788       0.00000000       0.00000000 -37111740.00000000
2
Properties=species:S:1:pos:R:3:forces:R:3 energy=-520817.7864242765 pbc="F F F"
Np       0.00000000       0.00000000       0.00000000       0.00000000       0.00000000 13974995.00000000
Np       0.00000000       0.00000000       0.33838384       0.00000000       0.00000000 -13974995.00000000
2
Properties=species:S:1:pos:R:3:forces:R:3 energy=-81364.48954927648 pbc="F F F"
Np       0.00000000       0.00000000       0.00000000       0.00000000       0.00000000 3030335.50000000
Np       0.00000000       0.00000000       0.39797980       0.00000000       0.00000000 -3030335.50000000
2
Properties=species:S:1:pos:R:3:forces:R:3 energy=-2919.90947115148 pbc="F F F"
Np       0.00000000       0.00000000       0.00000000       0.00000000       0.00000000  276337.50000000
Np       0.00000000       0.00000000       0.45757576       0.00000000       0.00000000 -276337.50000000
2
Properties=species:S:1:pos:R:3:forces:R:3 energy=2873.8729995769872 pbc="F F F"
Np       0.00000000       0.00000000       0.00000000       0.00000000       0.00000000  131038.88281250
Np       0.00000000       0.00000000       0.51717172       0.00000000       0.00000000 -131038.88281250
2
Properties=species:S:1:pos:R:3:forces:R:3 energy=1676.53608553983 pbc="F F F"
Np       0.00000000       0.00000000       0.00000000       0.00000000       0.00000000  -39075.08984375
Np       0.00000000       0.00000000       0.57676768       0.00000000       0.00000000   39075.08984375
2
Properties=species:S:1:pos:R:3:forces:R:3 energy=201.19009253585168 pbc="F F F"
Np       0.00000000       0.00000000       0.00000000       0.00000000       0.00000000   -5378.45703125
Np       0.00000000       0.00000000       0.63636364       0.00000000       0.00000000    5378.45703125
2
Properties=species:S:1:pos:R:3:forces:R:3 energy=64.50968794879348 pbc="F F F"
Np       0.00000000       0.00000000       0.00000000       0.00000000       0.00000000    -806.77532959
Np       0.00000000       0.00000000       0.69595960       0.00000000       0.00000000     806.77532959
2
Properties=species:S:1:pos:R:3:forces:R:3 energy=34.00337473886047 pbc="F F F"
Np       0.00000000       0.00000000       0.00000000       0.00000000       0.00000000    -333.10034180
Np       0.00000000       0.00000000       0.75555556       0.00000000       0.00000000     333.10034180
2
Properties=species:S:1:pos:R:3:forces:R:3 energy=21.54037366503781 pbc="F F F"
Np       0.00000000       0.00000000       0.00000000       0.00000000       0.00000000     -85.39861298
Np       0.00000000       0.00000000       0.81515152       0.00000000       0.00000000      85.39861298
2
Properties=species:S:1:pos:R:3:forces:R:3 energy=18.653071507110653 pbc="F F F"
Np       0.00000000       0.00000000       0.00000000       0.00000000       0.00000000     -11.37606049
Np       0.00000000       0.00000000       0.87474747       0.00000000       0.00000000      11.37606049
2
Properties=species:S:1:pos:R:3:forces:R:3 energy=19.53258845079794 pbc="F F F"
Np       0.00000000       0.00000000       0.00000000       0.00000000       0.00000000       6.33687115
Np       0.00000000       0.00000000       0.93434343       0.00000000       0.00000000      -6.33687115
2
Properties=species:S:1:pos:R:3:forces:R:3 energy=17.490936252863552 pbc="F F F"
Np       0.00000000       0.00000000       0.00000000       0.00000000       0.00000000     -16.54378128
Np       0.00000000       0.00000000       0.99393939       0.00000000       0.00000000      16.54378128
2
Properties=species:S:1:pos:R:3:forces:R:3 energy=17.99199738493911 pbc="F F F"
Np       0.00000000       0.00000000       0.00000000       0.00000000       0.00000000     -21.84653854
Np       0.00000000       0.00000000       1.05353535       0.00000000       0.00000000      21.84653854
2
Properties=species:S:1:pos:R:3:forces:R:3 energy=12.56078106565451 pbc="F F F"
Np       0.00000000       0.00000000       0.00000000       0.00000000       0.00000000    -147.02340698
Np       0.00000000       0.00000000       1.11313131       0.00000000       0.00000000     147.02340698
2
Properties=species:S:1:pos:R:3:forces:R:3 energy=3.071795249747631 pbc="F F F"
Np       0.00000000       0.00000000       0.00000000       0.00000000       0.00000000    -146.59950256
Np       0.00000000       0.00000000       1.17272727       0.00000000       0.00000000     146.59950256
2
Properties=species:S:1:pos:R:3:forces:R:3 energy=-4.859861058849299 pbc="F F F"
Np       0.00000000       0.00000000       0.00000000       0.00000000       0.00000000    -111.37805939
Np       0.00000000       0.00000000       1.23232323       0.00000000       0.00000000     111.37805939
2
Properties=species:S:1:pos:R:3:forces:R:3 energy=-9.88037268003062 pbc="F F F"
Np       0.00000000       0.00000000       0.00000000       0.00000000       0.00000000     -61.92246246
Np       0.00000000       0.00000000       1.29191919       0.00000000       0.00000000      61.92246246
2
Properties=species:S:1:pos:R:3:forces:R:3 energy=-12.503117681079148 pbc="F F F"
Np       0.00000000       0.00000000       0.00000000       0.00000000       0.00000000     -29.06266785
Np       0.00000000       0.00000000       1.35151515       0.00000000       0.00000000      29.06266785
2
Properties=species:S:1:pos:R:3:forces:R:3 energy=-14.002164755008168 pbc="F F F"
Np       0.00000000       0.00000000       0.00000000       0.00000000       0.00000000     -24.30118179
Np       0.00000000       0.00000000       1.41111111       0.00000000       0.00000000      24.30118179
2
Properties=species:S:1:pos:R:3:forces:R:3 energy=-15.366064952950204 pbc="F F F"
Np       0.00000000       0.00000000       0.00000000       0.00000000       0.00000000     -20.08969879
Np       0.00000000       0.00000000       1.47070707       0.00000000       0.00000000      20.08969879
2
Properties=species:S:1:pos:R:3:forces:R:3 energy=-16.28503894300321 pbc="F F F"
Np       0.00000000       0.00000000       0.00000000       0.00000000       0.00000000     -12.22837639
Np       0.00000000       0.00000000       1.53030303       0.00000000       0.00000000      12.22837639
2
Properties=species:S:1:pos:R:3:forces:R:3 energy=-16.99081894158096 pbc="F F F"
Np       0.00000000       0.00000000       0.00000000       0.00000000       0.00000000     -11.43686676
Np       0.00000000       0.00000000       1.58989899       0.00000000       0.00000000      11.43686676
2
Properties=species:S:1:pos:R:3:forces:R:3 energy=-17.610742189021067 pbc="F F F"
Np       0.00000000       0.00000000       0.00000000       0.00000000       0.00000000      -9.32945538
Np       0.00000000       0.00000000       1.64949495       0.00000000       0.00000000       9.32945538
2
Properties=species:S:1:pos:R:3:forces:R:3 energy=-18.142021833559077 pbc="F F F"
Np       0.00000000       0.00000000       0.00000000       0.00000000       0.00000000      -8.79902744
Np       0.00000000       0.00000000       1.70909091       0.00000000       0.00000000       8.79902744
2
Properties=species:S:1:pos:R:3:forces:R:3 energy=-18.628368355729965 pbc="F F F"
Np       0.00000000       0.00000000       0.00000000       0.00000000       0.00000000      -7.18926954
Np       0.00000000       0.00000000       1.76868687       0.00000000       0.00000000       7.18926954
2
Properties=species:S:1:pos:R:3:forces:R:3 energy=-18.993233841413428 pbc="F F F"
Np       0.00000000       0.00000000       0.00000000       0.00000000       0.00000000      -4.81254530
Np       0.00000000       0.00000000       1.82828283       0.00000000       0.00000000       4.81254530
2
Properties=species:S:1:pos:R:3:forces:R:3 energy=-19.186202947436037 pbc="F F F"
Np       0.00000000       0.00000000       0.00000000       0.00000000       0.00000000      -1.82009804
Np       0.00000000       0.00000000       1.88787879       0.00000000       0.00000000       1.82009804
2
Properties=species:S:1:pos:R:3:forces:R:3 energy=-19.242038629840778 pbc="F F F"
Np       0.00000000       0.00000000       0.00000000       0.00000000       0.00000000      -0.24687362
Np       0.00000000       0.00000000       1.94747475       0.00000000       0.00000000       0.24687362
2
Properties=species:S:1:pos:R:3:forces:R:3 energy=-19.226095822063602 pbc="F F F"
Np       0.00000000       0.00000000       0.00000000       0.00000000       0.00000000       0.78305703
Np       0.00000000       0.00000000       2.00707071       0.00000000       0.00000000      -0.78305703
2
Properties=species:S:1:pos:R:3:forces:R:3 energy=-19.158906675970343 pbc="F F F"
Np       0.00000000       0.00000000       0.00000000       0.00000000       0.00000000       1.35016215
Np       0.00000000       0.00000000       2.06666667       0.00000000       0.00000000      -1.35016215
2
Properties=species:S:1:pos:R:3:forces:R:3 energy=-19.067669501555944 pbc="F F F"
Np       0.00000000       0.00000000       0.00000000       0.00000000       0.00000000       1.70658720
Np       0.00000000       0.00000000       2.12626263       0.00000000       0.00000000      -1.70658720
2
Properties=species:S:1:pos:R:3:forces:R:3 energy=-18.965029462719254 pbc="F F F"
Np       0.00000000       0.00000000       0.00000000       0.00000000       0.00000000       1.65690804
Np       0.00000000       0.00000000       2.18585859       0.00000000       0.00000000      -1.65690804
2
Properties=species:S:1:pos:R:3:forces:R:3 energy=-18.867335756390176 pbc="F F F"
Np       0.00000000       0.00000000       0.00000000       0.00000000       0.00000000       1.67438638
Np       0.00000000       0.00000000       2.24545455       0.00000000       0.00000000      -1.67438638
2
Properties=species:S:1:pos:R:3:forces:R:3 energy=-18.76590165798788 pbc="F F F"
Np       0.00000000       0.00000000       0.00000000       0.00000000       0.00000000       1.71527553
Np       0.00000000       0.00000000       2.30505051       0.00000000       0.00000000      -1.71527553
2
Properties=species:S:1:pos:R:3:forces:R:3 energy=-18.662549857870587 pbc="F F F"
Np       0.00000000       0.00000000       0.00000000       0.00000000       0.00000000       1.74791288
Np       0.00000000       0.00000000       2.36464646       0.00000000       0.00000000      -1.74791288
2
Properties=species:S:1:pos:R:3:forces:R:3 energy=-18.560338919611578 pbc="F F F"
Np       0.00000000       0.00000000       0.00000000       0.00000000       0.00000000       1.65806842
Np       0.00000000       0.00000000       2.42424242       0.00000000       0.00000000      -1.65806842
2
Properties=species:S:1:pos:R:3:forces:R:3 energy=-18.467135782002288 pbc="F F F"
Np       0.00000000       0.00000000       0.00000000       0.00000000       0.00000000       1.45417035
Np       0.00000000       0.00000000       2.48383838       0.00000000       0.00000000      -1.45417035
2
Properties=species:S:1:pos:R:3:forces:R:3 energy=-18.388137032391775 pbc="F F F"
Np       0.00000000       0.00000000       0.00000000       0.00000000       0.00000000       1.19053054
Np       0.00000000       0.00000000       2.54343434       0.00000000       0.00000000      -1.19053054
2
Properties=species:S:1:pos:R:3:forces:R:3 energy=-18.326769124556254 pbc="F F F"
Np       0.00000000       0.00000000       0.00000000       0.00000000       0.00000000       0.85096896
Np       0.00000000       0.00000000       2.60303030       0.00000000       0.00000000      -0.85096896
2
Properties=species:S:1:pos:R:3:forces:R:3 energy=-18.28812538292155 pbc="F F F"
Np       0.00000000       0.00000000       0.00000000       0.00000000       0.00000000       0.44544843
Np       0.00000000       0.00000000       2.66262626       0.00000000       0.00000000      -0.44544843
2
Properties=species:S:1:pos:R:3:forces:R:3 energy=-18.272526970976763 pbc="F F F"
Np       0.00000000       0.00000000       0.00000000       0.00000000       0.00000000       0.09344576
Np       0.00000000       0.00000000       2.72222222       0.00000000       0.00000000      -0.09344576
2
Properties=species:S:1:pos:R:3:forces:R:3 energy=-18.2750878003741 pbc="F F F"
Np       0.00000000       0.00000000       0.00000000       0.00000000       0.00000000      -0.16459160
Np       0.00000000       0.00000000       2.78181818       0.00000000       0.00000000       0.16459160
2
Properties=species:S:1:pos:R:3:forces:R:3 energy=-18.290612741602082 pbc="F F F"
Np       0.00000000       0.00000000       0.00000000       0.00000000       0.00000000      -0.34573755
Np       0.00000000       0.00000000       2.84141414       0.00000000       0.00000000       0.34573755
2
Properties=species:S:1:pos:R:3:forces:R:3 energy=-18.315266439997693 pbc="F F F"
Np       0.00000000       0.00000000       0.00000000       0.00000000       0.00000000      -0.47479695
Np       0.00000000       0.00000000       2.90101010       0.00000000       0.00000000       0.47479695
2
Properties=species:S:1:pos:R:3:forces:R:3 energy=-18.346535244801416 pbc="F F F"
Np       0.00000000       0.00000000       0.00000000       0.00000000       0.00000000      -0.56943214
Np       0.00000000       0.00000000       2.96060606       0.00000000       0.00000000       0.56943214
2
Properties=species:S:1:pos:R:3:forces:R:3 energy=-18.382492854591053 pbc="F F F"
Np       0.00000000       0.00000000       0.00000000       0.00000000       0.00000000      -0.63165641
Np       0.00000000       0.00000000       3.02020202       0.00000000       0.00000000       0.63165641
2
Properties=species:S:1:pos:R:3:forces:R:3 energy=-18.42120898852039 pbc="F F F"
Np       0.00000000       0.00000000       0.00000000       0.00000000       0.00000000      -0.66335106
Np       0.00000000       0.00000000       3.07979798       0.00000000       0.00000000       0.66335106
2
Properties=species:S:1:pos:R:3:forces:R:3 energy=-18.461152001607466 pbc="F F F"
Np       0.00000000       0.00000000       0.00000000       0.00000000       0.00000000      -0.67429364
Np       0.00000000       0.00000000       3.13939394       0.00000000       0.00000000       0.67429364
2
Properties=species:S:1:pos:R:3:forces:R:3 energy=-18.50124961577991 pbc="F F F"
Np       0.00000000       0.00000000       0.00000000       0.00000000       0.00000000      -0.66827583
Np       0.00000000       0.00000000       3.19898990       0.00000000       0.00000000       0.66827583
2
Properties=species:S:1:pos:R:3:forces:R:3 energy=-18.540423843590727 pbc="F F F"
Np       0.00000000       0.00000000       0.00000000       0.00000000       0.00000000      -0.64312088
Np       0.00000000       0.00000000       3.25858586       0.00000000       0.00000000       0.64312088
2
Properties=species:S:1:pos:R:3:forces:R:3 energy=-18.57752777961638 pbc="F F F"
Np       0.00000000       0.00000000       0.00000000       0.00000000       0.00000000      -0.59923214
Np       0.00000000       0.00000000       3.31818182       0.00000000       0.00000000       0.59923214
2
Properties=species:S:1:pos:R:3:forces:R:3 energy=-18.611565198975317 pbc="F F F"
Np       0.00000000       0.00000000       0.00000000       0.00000000       0.00000000      -0.54131734
Np       0.00000000       0.00000000       3.37777778       0.00000000       0.00000000       0.54131734
2
Properties=species:S:1:pos:R:3:forces:R:3 energy=-18.641902006929172 pbc="F F F"
Np       0.00000000       0.00000000       0.00000000       0.00000000       0.00000000      -0.47600153
Np       0.00000000       0.00000000       3.43737374       0.00000000       0.00000000       0.47600153
2
Properties=species:S:1:pos:R:3:forces:R:3 energy=-18.66824930082824 pbc="F F F"
Np       0.00000000       0.00000000       0.00000000       0.00000000       0.00000000      -0.40782502
Np       0.00000000       0.00000000       3.49696970       0.00000000       0.00000000       0.40782502
2
Properties=species:S:1:pos:R:3:forces:R:3 energy=-18.69048968734431 pbc="F F F"
Np       0.00000000       0.00000000       0.00000000       0.00000000       0.00000000      -0.33859989
Np       0.00000000       0.00000000       3.55656566       0.00000000       0.00000000       0.33859989
2
Properties=species:S:1:pos:R:3:forces:R:3 energy=-18.708614428664802 pbc="F F F"
Np       0.00000000       0.00000000       0.00000000       0.00000000       0.00000000      -0.26980853
Np       0.00000000       0.00000000       3.61616162       0.00000000       0.00000000       0.26980853
2
Properties=species:S:1:pos:R:3:forces:R:3 energy=-18.722704369006426 pbc="F F F"
Np       0.00000000       0.00000000       0.00000000       0.00000000       0.00000000      -0.20362896
Np       0.00000000       0.00000000       3.67575758       0.00000000       0.00000000       0.20362896
2
Properties=species:S:1:pos:R:3:forces:R:3 energy=-18.732977669016176 pbc="F F F"
Np       0.00000000       0.00000000       0.00000000       0.00000000       0.00000000      -0.14202003
Np       0.00000000       0.00000000       3.73535354       0.00000000       0.00000000       0.14202003
2
Properties=species:S:1:pos:R:3:forces:R:3 energy=-18.739740100665266 pbc="F F F"
Np       0.00000000       0.00000000       0.00000000       0.00000000       0.00000000      -0.08587882
Np       0.00000000       0.00000000       3.79494949       0.00000000       0.00000000       0.08587882
2
Properties=species:S:1:pos:R:3:forces:R:3 energy=-18.743318492787598 pbc="F F F"
Np       0.00000000       0.00000000       0.00000000       0.00000000       0.00000000      -0.03514273
Np       0.00000000       0.00000000       3.85454545       0.00000000       0.00000000       0.03514273
2
Properties=species:S:1:pos:R:3:forces:R:3 energy=-18.744028217453998 pbc="F F F"
Np       0.00000000       0.00000000       0.00000000       0.00000000       0.00000000       0.01067882
Np       0.00000000       0.00000000       3.91414141       0.00000000       0.00000000      -0.01067882
2
Properties=species:S:1:pos:R:3:forces:R:3 energy=-18.742135017656963 pbc="F F F"
Np       0.00000000       0.00000000       0.00000000       0.00000000       0.00000000       0.05211229
Np       0.00000000       0.00000000       3.97373737       0.00000000       0.00000000      -0.05211229
2
Properties=species:S:1:pos:R:3:forces:R:3 energy=-18.73789335702395 pbc="F F F"
Np       0.00000000       0.00000000       0.00000000       0.00000000       0.00000000       0.08963416
Np       0.00000000       0.00000000       4.03333333       0.00000000       0.00000000      -0.08963416
2
Properties=species:S:1:pos:R:3:forces:R:3 energy=-18.7315196155662 pbc="F F F"
Np       0.00000000       0.00000000       0.00000000       0.00000000       0.00000000       0.12367982
Np       0.00000000       0.00000000       4.09292929       0.00000000       0.00000000      -0.12367982
2
Properties=species:S:1:pos:R:3:forces:R:3 energy=-18.723213171884016 pbc="F F F"
Np       0.00000000       0.00000000       0.00000000       0.00000000       0.00000000       0.15456541
Np       0.00000000       0.00000000       4.15252525       0.00000000       0.00000000      -0.15456541
2
Properties=species:S:1:pos:R:3:forces:R:3 energy=-18.713158373871828 pbc="F F F"
Np       0.00000000       0.00000000       0.00000000       0.00000000       0.00000000       0.18234394
Np       0.00000000       0.00000000       4.21212121       0.00000000       0.00000000      -0.18234394
2
Properties=species:S:1:pos:R:3:forces:R:3 energy=-18.70154553222445 pbc="F F F"
Np       0.00000000       0.00000000       0.00000000       0.00000000       0.00000000       0.20674263
Np       0.00000000       0.00000000       4.27171717       0.00000000       0.00000000      -0.20674263
2
Properties=species:S:1:pos:R:3:forces:R:3 energy=-18.68859198997106 pbc="F F F"
Np       0.00000000       0.00000000       0.00000000       0.00000000       0.00000000       0.22727552
Np       0.00000000       0.00000000       4.33131313       0.00000000       0.00000000      -0.22727552
2
Properties=species:S:1:pos:R:3:forces:R:3 energy=-18.674544093180266 pbc="F F F"
Np       0.00000000       0.00000000       0.00000000       0.00000000       0.00000000       0.24346767
Np       0.00000000       0.00000000       4.39090909       0.00000000       0.00000000      -0.24346767
2
Properties=species:S:1:pos:R:3:forces:R:3 energy=-18.65966380150583 pbc="F F F"
Np       0.00000000       0.00000000       0.00000000       0.00000000       0.00000000       0.25506496
Np       0.00000000       0.00000000       4.45050505       0.00000000       0.00000000      -0.25506496
2
Properties=species:S:1:pos:R:3:forces:R:3 energy=-18.64423082361848 pbc="F F F"
Np       0.00000000       0.00000000       0.00000000       0.00000000       0.00000000       0.26211983
Np       0.00000000       0.00000000       4.51010101       0.00000000       0.00000000      -0.26211983
2
Properties=species:S:1:pos:R:3:forces:R:3 energy=-18.628504305506503 pbc="F F F"
Np       0.00000000       0.00000000       0.00000000       0.00000000       0.00000000       0.26496321
Np       0.00000000       0.00000000       4.56969697       0.00000000       0.00000000      -0.26496321
2
Properties=species:S:1:pos:R:3:forces:R:3 energy=-18.612725029264027 pbc="F F F"
Np       0.00000000       0.00000000       0.00000000       0.00000000       0.00000000       0.26411611
Np       0.00000000       0.00000000       4.62929293       0.00000000       0.00000000      -0.26411611
2
Properties=species:S:1:pos:R:3:forces:R:3 energy=-18.5970866001209 pbc="F F F"
Np       0.00000000       0.00000000       0.00000000       0.00000000       0.00000000       0.26019859
Np       0.00000000       0.00000000       4.68888889       0.00000000       0.00000000      -0.26019859
2
Properties=species:S:1:pos:R:3:forces:R:3 energy=-18.581758588052054 pbc="F F F"
Np       0.00000000       0.00000000       0.00000000       0.00000000       0.00000000       0.25387496
Np       0.00000000       0.00000000       4.74848485       0.00000000       0.00000000      -0.25387496
2
Properties=species:S:1:pos:R:3:forces:R:3 energy=-18.566861567518536 pbc="F F F"
Np       0.00000000       0.00000000       0.00000000       0.00000000       0.00000000       0.24583505
Np       0.00000000       0.00000000       4.80808081       0.00000000       0.00000000      -0.24583505
2
Properties=species:S:1:pos:R:3:forces:R:3 energy=-18.552474886246213 pbc="F F F"
Np       0.00000000       0.00000000       0.00000000       0.00000000       0.00000000       0.23676658
Np       0.00000000       0.00000000       4.86767677       0.00000000       0.00000000      -0.23676658
2
Properties=species:S:1:pos:R:3:forces:R:3 energy=-18.538650023001836 pbc="F F F"
Np       0.00000000       0.00000000       0.00000000       0.00000000       0.00000000       0.22729868
Np       0.00000000       0.00000000       4.92727273       0.00000000       0.00000000      -0.22729868
2
Properties=species:S:1:pos:R:3:forces:R:3 energy=-18.5253818696576 pbc="F F F"
Np       0.00000000       0.00000000       0.00000000       0.00000000       0.00000000       0.21791305
Np       0.00000000       0.00000000       4.98686869       0.00000000       0.00000000      -0.21791305
2
Properties=species:S:1:pos:R:3:forces:R:3 energy=-18.512669855046425 pbc="F F F"
Np       0.00000000       0.00000000       0.00000000       0.00000000       0.00000000       0.20885587
Np       0.00000000       0.00000000       5.04646465       0.00000000       0.00000000      -0.20885587
2
Properties=species:S:1:pos:R:3:forces:R:3 energy=-18.500483422617222 pbc="F F F"
Np       0.00000000       0.00000000       0.00000000       0.00000000       0.00000000       0.20008096
Np       0.00000000       0.00000000       5.10606061       0.00000000       0.00000000      -0.20008096
2
Properties=species:S:1:pos:R:3:forces:R:3 energy=-18.488819371271116 pbc="F F F"
Np       0.00000000       0.00000000       0.00000000       0.00000000       0.00000000       0.19125512
Np       0.00000000       0.00000000       5.16565657       0.00000000       0.00000000      -0.19125512
2
Properties=species:S:1:pos:R:3:forces:R:3 energy=-18.477697837923582 pbc="F F F"
Np       0.00000000       0.00000000       0.00000000       0.00000000       0.00000000       0.18185380
Np       0.00000000       0.00000000       5.22525253       0.00000000       0.00000000      -0.18185380
2
Properties=species:S:1:pos:R:3:forces:R:3 energy=-18.467169882549452 pbc="F F F"
Np       0.00000000       0.00000000       0.00000000       0.00000000       0.00000000       0.17129859
Np       0.00000000       0.00000000       5.28484848       0.00000000       0.00000000      -0.17129859
2
Properties=species:S:1:pos:R:3:forces:R:3 energy=-18.457313622800495 pbc="F F F"
Np       0.00000000       0.00000000       0.00000000       0.00000000       0.00000000       0.15913098
Np       0.00000000       0.00000000       5.34444444       0.00000000       0.00000000      -0.15913098
2
Properties=species:S:1:pos:R:3:forces:R:3 energy=-18.44823789664722 pbc="F F F"
Np       0.00000000       0.00000000       0.00000000       0.00000000       0.00000000       0.14515823
Np       0.00000000       0.00000000       5.40404040       0.00000000       0.00000000      -0.14515823
2
Properties=species:S:1:pos:R:3:forces:R:3 energy=-18.440042125694223 pbc="F F F"
Np       0.00000000       0.00000000       0.00000000       0.00000000       0.00000000       0.12955755
Np       0.00000000       0.00000000       5.46363636       0.00000000       0.00000000      -0.12955755
2
Properties=species:S:1:pos:R:3:forces:R:3 energy=-18.432818140165423 pbc="F F F"
Np       0.00000000       0.00000000       0.00000000       0.00000000       0.00000000       0.11288844
Np       0.00000000       0.00000000       5.52323232       0.00000000       0.00000000      -0.11288844
2
Properties=species:S:1:pos:R:3:forces:R:3 energy=-18.42659281906093 pbc="F F F"
Np       0.00000000       0.00000000       0.00000000       0.00000000       0.00000000       0.09601621
Np       0.00000000       0.00000000       5.58282828       0.00000000       0.00000000      -0.09601621
2
Properties=species:S:1:pos:R:3:forces:R:3 energy=-18.42135849369354 pbc="F F F"
Np       0.00000000       0.00000000       0.00000000       0.00000000       0.00000000       0.08000821
Np       0.00000000       0.00000000       5.64242424       0.00000000       0.00000000      -0.08000821
2
Properties=species:S:1:pos:R:3:forces:R:3 energy=-18.417017615571478 pbc="F F F"
Np       0.00000000       0.00000000       0.00000000       0.00000000       0.00000000       0.06589685
Np       0.00000000       0.00000000       5.70202020       0.00000000       0.00000000      -0.06589685
2
Properties=species:S:1:pos:R:3:forces:R:3 energy=-18.41344938688765 pbc="F F F"
Np       0.00000000       0.00000000       0.00000000       0.00000000       0.00000000       0.05453572
Np       0.00000000       0.00000000       5.76161616       0.00000000       0.00000000      -0.05453572
2
Properties=species:S:1:pos:R:3:forces:R:3 energy=-18.41045624071632 pbc="F F F"
Np       0.00000000       0.00000000       0.00000000       0.00000000       0.00000000       0.04636413
Np       0.00000000       0.00000000       5.82121212       0.00000000       0.00000000      -0.04636413
2
Properties=species:S:1:pos:R:3:forces:R:3 energy=-18.40785542542573 pbc="F F F"
Np       0.00000000       0.00000000       0.00000000       0.00000000       0.00000000       0.04133663
Np       0.00000000       0.00000000       5.88080808       0.00000000       0.00000000      -0.04133663
2
Properties=species:S:1:pos:R:3:forces:R:3 energy=-18.405480778978166 pbc="F F F"
Np       0.00000000       0.00000000       0.00000000       0.00000000       0.00000000       0.03882119
Np       0.00000000       0.00000000       5.94040404       0.00000000       0.00000000      -0.03882119
2
Properties=species:S:1:pos:R:3:forces:R:3 energy=-18.40320375411446 pbc="F F F"
Np       0.00000000       0.00000000       0.00000000       0.00000000       0.00000000       0.03771560
Np       0.00000000       0.00000000       6.00000000       0.00000000       0.00000000      -0.03771560
