2
Properties=species:S:1:pos:R:3:forces:R:3 energy=8020601.956514963 pbc="F F F"
P        0.00000000       0.00000000       0.00000000       0.00000000       0.00000000 -36851068.00000000
P        0.00000000       0.00000000       0.10000000       0.00000000       0.00000000 36851068.00000000
2
Properties=species:S:1:pos:R:3:forces:R:3 energy=5590664.956514963 pbc="F F F"
P        0.00000000       0.00000000       0.00000000       0.00000000       0.00000000 -42309736.00000000
P        0.00000000       0.00000000       0.15959596       0.00000000       0.00000000 42309736.00000000
2
Properties=species:S:1:pos:R:3:forces:R:3 energy=3222814.2065149634 pbc="F F F"
P        0.00000000       0.00000000       0.00000000       0.00000000       0.00000000 -35582732.00000000
P        0.00000000       0.00000000       0.21919192       0.00000000       0.00000000 35582732.00000000
2
Properties=species:S:1:pos:R:3:forces:R:3 energy=1468551.3315149632 pbc="F F F"
P        0.00000000       0.00000000       0.00000000       0.00000000       0.00000000 -22858714.00000000
P        0.00000000       0.00000000       0.27878788       0.00000000       0.00000000 22858714.00000000
2
Properties=species:S:1:pos:R:3:forces:R:3 energy=488282.9252649727 pbc="F F F"
P        0.00000000       0.00000000       0.00000000       0.00000000       0.00000000 -10591349.00000000
P        0.00000000       0.00000000       0.33838384       0.00000000       0.00000000 10591349.00000000
2
Properties=species:S:1:pos:R:3:forces:R:3 energy=104710.51901498859 pbc="F F F"
P        0.00000000       0.00000000       0.00000000       0.00000000       0.00000000 -3251431.50000000
P        0.00000000       0.00000000       0.39797980       0.00000000       0.00000000 3251431.50000000
2
Properties=species:S:1:pos:R:3:forces:R:3 energy=7122.373018923353 pbc="F F F"
P        0.00000000       0.00000000       0.00000000       0.00000000       0.00000000 -557915.81250000
P        0.00000000       0.00000000       0.45757576       0.00000000       0.00000000  557915.81250000
2
Properties=species:S:1:pos:R:3:forces:R:3 energy=-1165.6791050398956 pbc="F F F"
P        0.00000000       0.00000000       0.00000000       0.00000000       0.00000000   13602.05371094
P        0.00000000       0.00000000       0.51717172       0.00000000       0.00000000  -13602.05371094
2
Properties=species:S:1:pos:R:3:forces:R:3 energy=-488.74752534868156 pbc="F F F"
P        0.00000000       0.00000000       0.00000000       0.00000000       0.00000000    9827.36132812
P        0.00000000       0.00000000       0.57676768       0.00000000       0.00000000   -9827.36132812
2
Properties=species:S:1:pos:R:3:forces:R:3 energy=-101.31602951111527 pbc="F F F"
P        0.00000000       0.00000000       0.00000000       0.00000000       0.00000000    3869.44628906
P        0.00000000       0.00000000       0.63636364       0.00000000       0.00000000   -3869.44628906
2
Properties=species:S:1:pos:R:3:forces:R:3 energy=25.368081409132564 pbc="F F F"
P        0.00000000       0.00000000       0.00000000       0.00000000       0.00000000     896.46319580
P        0.00000000       0.00000000       0.69595960       0.00000000       0.00000000    -896.46319580
2
Properties=species:S:1:pos:R:3:forces:R:3 energy=46.03418329247703 pbc="F F F"
P        0.00000000       0.00000000       0.00000000       0.00000000       0.00000000      21.32803154
P        0.00000000       0.00000000       0.75555556       0.00000000       0.00000000     -21.32803154
2
Properties=species:S:1:pos:R:3:forces:R:3 energy=38.05657620849415 pbc="F F F"
P        0.00000000       0.00000000       0.00000000       0.00000000       0.00000000    -172.08038330
P        0.00000000       0.00000000       0.81515152       0.00000000       0.00000000     172.08038330
2
Properties=species:S:1:pos:R:3:forces:R:3 energy=31.3963922701009 pbc="F F F"
P        0.00000000       0.00000000       0.00000000       0.00000000       0.00000000     -66.57044983
P        0.00000000       0.00000000       0.87474747       0.00000000       0.00000000      66.57044983
2
Properties=species:S:1:pos:R:3:forces:R:3 energy=32.357908998711544 pbc="F F F"
P        0.00000000       0.00000000       0.00000000       0.00000000       0.00000000      35.95361328
P        0.00000000       0.00000000       0.93434343       0.00000000       0.00000000     -35.95361328
2
Properties=species:S:1:pos:R:3:forces:R:3 energy=31.405249296423587 pbc="F F F"
P        0.00000000       0.00000000       0.00000000       0.00000000       0.00000000     -49.94420624
P        0.00000000       0.00000000       0.99393939       0.00000000       0.00000000      49.94420624
2
Properties=species:S:1:pos:R:3:forces:R:3 energy=28.079629192892 pbc="F F F"
P        0.00000000       0.00000000       0.00000000       0.00000000       0.00000000     -43.77475739
P        0.00000000       0.00000000       1.05353535       0.00000000       0.00000000      43.77475739
2
Properties=species:S:1:pos:R:3:forces:R:3 energy=26.120316217925815 pbc="F F F"
P        0.00000000       0.00000000       0.00000000       0.00000000       0.00000000     -40.65797043
P        0.00000000       0.00000000       1.11313131       0.00000000       0.00000000      40.65797043
2
Properties=species:S:1:pos:R:3:forces:R:3 energy=22.227467755632098 pbc="F F F"
P        0.00000000       0.00000000       0.00000000       0.00000000       0.00000000     -92.74654388
P        0.00000000       0.00000000       1.17272727       0.00000000       0.00000000      92.74654388
2
Properties=species:S:1:pos:R:3:forces:R:3 energy=16.413130867065828 pbc="F F F"
P        0.00000000       0.00000000       0.00000000       0.00000000       0.00000000     -96.20475769
P        0.00000000       0.00000000       1.23232323       0.00000000       0.00000000      96.20475769
2
Properties=species:S:1:pos:R:3:forces:R:3 energy=10.821839004183088 pbc="F F F"
P        0.00000000       0.00000000       0.00000000       0.00000000       0.00000000     -89.97377777
P        0.00000000       0.00000000       1.29191919       0.00000000       0.00000000      89.97377777
2
Properties=species:S:1:pos:R:3:forces:R:3 energy=6.003322825851109 pbc="F F F"
P        0.00000000       0.00000000       0.00000000       0.00000000       0.00000000     -71.67985535
P        0.00000000       0.00000000       1.35151515       0.00000000       0.00000000      71.67985535
2
Properties=species:S:1:pos:R:3:forces:R:3 energy=2.096882133419139 pbc="F F F"
P        0.00000000       0.00000000       0.00000000       0.00000000       0.00000000     -58.84255981
P        0.00000000       0.00000000       1.41111111       0.00000000       0.00000000      58.84255981
2
Properties=species:S:1:pos:R:3:forces:R:3 energy=-1.0182625985928668 pbc="F F F"
P        0.00000000       0.00000000       0.00000000       0.00000000       0.00000000     -47.06657791
P        0.00000000       0.00000000       1.47070707       0.00000000       0.00000000      47.06657791
2
Properties=species:S:1:pos:R:3:forces:R:3 energy=-3.556001857845232 pbc="F F F"
P        0.00000000       0.00000000       0.00000000       0.00000000       0.00000000     -37.73699188
P        0.00000000       0.00000000       1.53030303       0.00000000       0.00000000      37.73699188
2
Properties=species:S:1:pos:R:3:forces:R:3 energy=-5.503119955274552 pbc="F F F"
P        0.00000000       0.00000000       0.00000000       0.00000000       0.00000000     -27.47279549
P        0.00000000       0.00000000       1.58989899       0.00000000       0.00000000      27.47279549
2
Properties=species:S:1:pos:R:3:forces:R:3 energy=-6.838887129018547 pbc="F F F"
P        0.00000000       0.00000000       0.00000000       0.00000000       0.00000000     -17.69951630
P        0.00000000       0.00000000       1.64949495       0.00000000       0.00000000      17.69951630
2
Properties=species:S:1:pos:R:3:forces:R:3 energy=-7.67316442835674 pbc="F F F"
P        0.00000000       0.00000000       0.00000000       0.00000000       0.00000000     -10.83452225
P        0.00000000       0.00000000       1.70909091       0.00000000       0.00000000      10.83452225
2
Properties=species:S:1:pos:R:3:forces:R:3 energy=-8.181392215566019 pbc="F F F"
P        0.00000000       0.00000000       0.00000000       0.00000000       0.00000000      -6.60470915
P        0.00000000       0.00000000       1.76868687       0.00000000       0.00000000       6.60470915
2
Properties=species:S:1:pos:R:3:forces:R:3 energy=-8.48632694029867 pbc="F F F"
P        0.00000000       0.00000000       0.00000000       0.00000000       0.00000000      -3.61101556
P        0.00000000       0.00000000       1.82828283       0.00000000       0.00000000       3.61101556
2
Properties=species:S:1:pos:R:3:forces:R:3 energy=-8.611410207347454 pbc="F F F"
P        0.00000000       0.00000000       0.00000000       0.00000000       0.00000000      -0.71464127
P        0.00000000       0.00000000       1.88787879       0.00000000       0.00000000       0.71464127
2
Properties=species:S:1:pos:R:3:forces:R:3 energy=-8.585520951270624 pbc="F F F"
P        0.00000000       0.00000000       0.00000000       0.00000000       0.00000000       1.49996126
P        0.00000000       0.00000000       1.94747475       0.00000000       0.00000000      -1.49996126
2
Properties=species:S:1:pos:R:3:forces:R:3 energy=-8.452796730962172 pbc="F F F"
P        0.00000000       0.00000000       0.00000000       0.00000000       0.00000000       2.73826861
P        0.00000000       0.00000000       2.00707071       0.00000000       0.00000000      -2.73826861
2
Properties=species:S:1:pos:R:3:forces:R:3 energy=-8.279728154073275 pbc="F F F"
P        0.00000000       0.00000000       0.00000000       0.00000000       0.00000000       2.98674393
P        0.00000000       0.00000000       2.06666667       0.00000000       0.00000000      -2.98674393
2
Properties=species:S:1:pos:R:3:forces:R:3 energy=-8.095814696199062 pbc="F F F"
P        0.00000000       0.00000000       0.00000000       0.00000000       0.00000000       3.22526455
P        0.00000000       0.00000000       2.12626263       0.00000000       0.00000000      -3.22526455
2
Properties=species:S:1:pos:R:3:forces:R:3 energy=-7.894014660925722 pbc="F F F"
P        0.00000000       0.00000000       0.00000000       0.00000000       0.00000000       3.52810407
P        0.00000000       0.00000000       2.18585859       0.00000000       0.00000000      -3.52810407
2
Properties=species:S:1:pos:R:3:forces:R:3 energy=-7.677060102078074 pbc="F F F"
P        0.00000000       0.00000000       0.00000000       0.00000000       0.00000000       3.76107383
P        0.00000000       0.00000000       2.24545455       0.00000000       0.00000000      -3.76107383
2
Properties=species:S:1:pos:R:3:forces:R:3 energy=-7.443280000343777 pbc="F F F"
P        0.00000000       0.00000000       0.00000000       0.00000000       0.00000000       4.09405804
P        0.00000000       0.00000000       2.30505051       0.00000000       0.00000000      -4.09405804
2
Properties=species:S:1:pos:R:3:forces:R:3 energy=-7.191309402509611 pbc="F F F"
P        0.00000000       0.00000000       0.00000000       0.00000000       0.00000000       4.33204460
P        0.00000000       0.00000000       2.36464646       0.00000000       0.00000000      -4.33204460
2
Properties=species:S:1:pos:R:3:forces:R:3 energy=-6.928640954036416 pbc="F F F"
P        0.00000000       0.00000000       0.00000000       0.00000000       0.00000000       4.47686243
P        0.00000000       0.00000000       2.42424242       0.00000000       0.00000000      -4.47686243
2
Properties=species:S:1:pos:R:3:forces:R:3 energy=-6.659306777422519 pbc="F F F"
P        0.00000000       0.00000000       0.00000000       0.00000000       0.00000000       4.54182959
P        0.00000000       0.00000000       2.48383838       0.00000000       0.00000000      -4.54182959
2
Properties=species:S:1:pos:R:3:forces:R:3 energy=-6.389695050572902 pbc="F F F"
P        0.00000000       0.00000000       0.00000000       0.00000000       0.00000000       4.48680544
P        0.00000000       0.00000000       2.54343434       0.00000000       0.00000000      -4.48680544
2
Properties=species:S:1:pos:R:3:forces:R:3 energy=-6.126582273917662 pbc="F F F"
P        0.00000000       0.00000000       0.00000000       0.00000000       0.00000000       4.33059978
P        0.00000000       0.00000000       2.60303030       0.00000000       0.00000000      -4.33059978
2
Properties=species:S:1:pos:R:3:forces:R:3 energy=-5.874315984617109 pbc="F F F"
P        0.00000000       0.00000000       0.00000000       0.00000000       0.00000000       4.13172770
P        0.00000000       0.00000000       2.66262626       0.00000000       0.00000000      -4.13172770
2
Properties=species:S:1:pos:R:3:forces:R:3 energy=-5.634671201091179 pbc="F F F"
P        0.00000000       0.00000000       0.00000000       0.00000000       0.00000000       3.90380716
P        0.00000000       0.00000000       2.72222222       0.00000000       0.00000000      -3.90380716
2
Properties=species:S:1:pos:R:3:forces:R:3 energy=-5.409886934234613 pbc="F F F"
P        0.00000000       0.00000000       0.00000000       0.00000000       0.00000000       3.63349366
P        0.00000000       0.00000000       2.78181818       0.00000000       0.00000000      -3.63349366
2
Properties=species:S:1:pos:R:3:forces:R:3 energy=-5.202126261808867 pbc="F F F"
P        0.00000000       0.00000000       0.00000000       0.00000000       0.00000000       3.33583522
P        0.00000000       0.00000000       2.84141414       0.00000000       0.00000000      -3.33583522
2
Properties=species:S:1:pos:R:3:forces:R:3 energy=-5.012504964236751 pbc="F F F"
P        0.00000000       0.00000000       0.00000000       0.00000000       0.00000000       3.02690744
P        0.00000000       0.00000000       2.90101010       0.00000000       0.00000000      -3.02690744
2
Properties=species:S:1:pos:R:3:forces:R:3 energy=-4.8413122756271925 pbc="F F F"
P        0.00000000       0.00000000       0.00000000       0.00000000       0.00000000       2.71976638
P        0.00000000       0.00000000       2.96060606       0.00000000       0.00000000      -2.71976638
2
Properties=species:S:1:pos:R:3:forces:R:3 energy=-4.68800461696543 pbc="F F F"
P        0.00000000       0.00000000       0.00000000       0.00000000       0.00000000       2.42891383
P        0.00000000       0.00000000       3.02020202       0.00000000       0.00000000      -2.42891383
2
Properties=species:S:1:pos:R:3:forces:R:3 energy=-4.551300881544121 pbc="F F F"
P        0.00000000       0.00000000       0.00000000       0.00000000       0.00000000       2.16286445
P        0.00000000       0.00000000       3.07979798       0.00000000       0.00000000      -2.16286445
2
Properties=species:S:1:pos:R:3:forces:R:3 energy=-4.429793510838163 pbc="F F F"
P        0.00000000       0.00000000       0.00000000       0.00000000       0.00000000       1.91768789
P        0.00000000       0.00000000       3.13939394       0.00000000       0.00000000      -1.91768789
2
Properties=species:S:1:pos:R:3:forces:R:3 energy=-4.322426630528338 pbc="F F F"
P        0.00000000       0.00000000       0.00000000       0.00000000       0.00000000       1.68781543
P        0.00000000       0.00000000       3.19898990       0.00000000       0.00000000      -1.68781543
2
Properties=species:S:1:pos:R:3:forces:R:3 energy=-4.228305088063552 pbc="F F F"
P        0.00000000       0.00000000       0.00000000       0.00000000       0.00000000       1.47385633
P        0.00000000       0.00000000       3.25858586       0.00000000       0.00000000      -1.47385633
2
Properties=species:S:1:pos:R:3:forces:R:3 energy=-4.146358791619083 pbc="F F F"
P        0.00000000       0.00000000       0.00000000       0.00000000       0.00000000       1.27985561
P        0.00000000       0.00000000       3.31818182       0.00000000       0.00000000      -1.27985561
2
Properties=species:S:1:pos:R:3:forces:R:3 energy=-4.075313735087995 pbc="F F F"
P        0.00000000       0.00000000       0.00000000       0.00000000       0.00000000       1.10809839
P        0.00000000       0.00000000       3.37777778       0.00000000       0.00000000      -1.10809839
2
Properties=species:S:1:pos:R:3:forces:R:3 energy=-4.01387007810516 pbc="F F F"
P        0.00000000       0.00000000       0.00000000       0.00000000       0.00000000       0.95701069
P        0.00000000       0.00000000       3.43737374       0.00000000       0.00000000      -0.95701069
2
Properties=species:S:1:pos:R:3:forces:R:3 energy=-3.9608945155067694 pbc="F F F"
P        0.00000000       0.00000000       0.00000000       0.00000000       0.00000000       0.82357395
P        0.00000000       0.00000000       3.49696970       0.00000000       0.00000000      -0.82357395
2
Properties=species:S:1:pos:R:3:forces:R:3 energy=-3.9154040742105685 pbc="F F F"
P        0.00000000       0.00000000       0.00000000       0.00000000       0.00000000       0.70532429
P        0.00000000       0.00000000       3.55656566       0.00000000       0.00000000      -0.70532429
2
Properties=species:S:1:pos:R:3:forces:R:3 energy=-3.8765646240197507 pbc="F F F"
P        0.00000000       0.00000000       0.00000000       0.00000000       0.00000000       0.60008073
P        0.00000000       0.00000000       3.61616162       0.00000000       0.00000000      -0.60008073
2
Properties=species:S:1:pos:R:3:forces:R:3 energy=-3.8436643774827135 pbc="F F F"
P        0.00000000       0.00000000       0.00000000       0.00000000       0.00000000       0.50575751
P        0.00000000       0.00000000       3.67575758       0.00000000       0.00000000      -0.50575751
2
Properties=species:S:1:pos:R:3:forces:R:3 energy=-3.816094854420597 pbc="F F F"
P        0.00000000       0.00000000       0.00000000       0.00000000       0.00000000       0.42103899
P        0.00000000       0.00000000       3.73535354       0.00000000       0.00000000      -0.42103899
2
Properties=species:S:1:pos:R:3:forces:R:3 energy=-3.793292634934074 pbc="F F F"
P        0.00000000       0.00000000       0.00000000       0.00000000       0.00000000       0.34575662
P        0.00000000       0.00000000       3.79494949       0.00000000       0.00000000      -0.34575662
2
Properties=species:S:1:pos:R:3:forces:R:3 energy=-3.7746820407418773 pbc="F F F"
P        0.00000000       0.00000000       0.00000000       0.00000000       0.00000000       0.28048241
P        0.00000000       0.00000000       3.85454545       0.00000000       0.00000000      -0.28048241
2
Properties=species:S:1:pos:R:3:forces:R:3 energy=-3.759653096133394 pbc="F F F"
P        0.00000000       0.00000000       0.00000000       0.00000000       0.00000000       0.22574781
P        0.00000000       0.00000000       3.91414141       0.00000000       0.00000000      -0.22574781
2
Properties=species:S:1:pos:R:3:forces:R:3 energy=-3.7475689292799994 pbc="F F F"
P        0.00000000       0.00000000       0.00000000       0.00000000       0.00000000       0.18145190
P        0.00000000       0.00000000       3.97373737       0.00000000       0.00000000      -0.18145190
2
Properties=species:S:1:pos:R:3:forces:R:3 energy=-3.7378353271037144 pbc="F F F"
P        0.00000000       0.00000000       0.00000000       0.00000000       0.00000000       0.14668879
P        0.00000000       0.00000000       4.03333333       0.00000000       0.00000000      -0.14668879
2
Properties=species:S:1:pos:R:3:forces:R:3 energy=-3.7299244029048957 pbc="F F F"
P        0.00000000       0.00000000       0.00000000       0.00000000       0.00000000       0.11995302
P        0.00000000       0.00000000       4.09292929       0.00000000       0.00000000      -0.11995302
2
Properties=species:S:1:pos:R:3:forces:R:3 energy=-3.723410723528574 pbc="F F F"
P        0.00000000       0.00000000       0.00000000       0.00000000       0.00000000       0.09957401
P        0.00000000       0.00000000       4.15252525       0.00000000       0.00000000      -0.09957401
2
Properties=species:S:1:pos:R:3:forces:R:3 energy=-3.7179588450740733 pbc="F F F"
P        0.00000000       0.00000000       0.00000000       0.00000000       0.00000000       0.08409649
P        0.00000000       0.00000000       4.21212121       0.00000000       0.00000000      -0.08409649
2
Properties=species:S:1:pos:R:3:forces:R:3 energy=-3.7133117816881094 pbc="F F F"
P        0.00000000       0.00000000       0.00000000       0.00000000       0.00000000       0.07243692
P        0.00000000       0.00000000       4.27171717       0.00000000       0.00000000      -0.07243692
2
Properties=species:S:1:pos:R:3:forces:R:3 energy=-3.709265250022598 pbc="F F F"
P        0.00000000       0.00000000       0.00000000       0.00000000       0.00000000       0.06379599
P        0.00000000       0.00000000       4.33131313       0.00000000       0.00000000      -0.06379599
2
Properties=species:S:1:pos:R:3:forces:R:3 energy=-3.705661939269204 pbc="F F F"
P        0.00000000       0.00000000       0.00000000       0.00000000       0.00000000       0.05749141
P        0.00000000       0.00000000       4.39090909       0.00000000       0.00000000      -0.05749141
2
Properties=species:S:1:pos:R:3:forces:R:3 energy=-3.7023800797388313 pbc="F F F"
P        0.00000000       0.00000000       0.00000000       0.00000000       0.00000000       0.05287378
P        0.00000000       0.00000000       4.45050505       0.00000000       0.00000000      -0.05287378
2
Properties=species:S:1:pos:R:3:forces:R:3 energy=-3.699337319331422 pbc="F F F"
P        0.00000000       0.00000000       0.00000000       0.00000000       0.00000000       0.04935779
P        0.00000000       0.00000000       4.51010101       0.00000000       0.00000000      -0.04935779
2
Properties=species:S:1:pos:R:3:forces:R:3 energy=-3.696483081470135 pbc="F F F"
P        0.00000000       0.00000000       0.00000000       0.00000000       0.00000000       0.04650175
P        0.00000000       0.00000000       4.56969697       0.00000000       0.00000000      -0.04650175
2
Properties=species:S:1:pos:R:3:forces:R:3 energy=-3.69378536571638 pbc="F F F"
P        0.00000000       0.00000000       0.00000000       0.00000000       0.00000000       0.04405517
P        0.00000000       0.00000000       4.62929293       0.00000000       0.00000000      -0.04405517
2
Properties=species:S:1:pos:R:3:forces:R:3 energy=-3.6912269314886417 pbc="F F F"
P        0.00000000       0.00000000       0.00000000       0.00000000       0.00000000       0.04193046
P        0.00000000       0.00000000       4.68888889       0.00000000       0.00000000      -0.04193046
2
Properties=species:S:1:pos:R:3:forces:R:3 energy=-3.688782516000926 pbc="F F F"
P        0.00000000       0.00000000       0.00000000       0.00000000       0.00000000       0.04012388
P        0.00000000       0.00000000       4.74848485       0.00000000       0.00000000      -0.04012388
2
Properties=species:S:1:pos:R:3:forces:R:3 energy=-3.6864369786253963 pbc="F F F"
P        0.00000000       0.00000000       0.00000000       0.00000000       0.00000000       0.03863688
P        0.00000000       0.00000000       4.80808081       0.00000000       0.00000000      -0.03863688
2
Properties=species:S:1:pos:R:3:forces:R:3 energy=-3.684172069037227 pbc="F F F"
P        0.00000000       0.00000000       0.00000000       0.00000000       0.00000000       0.03742615
P        0.00000000       0.00000000       4.86767677       0.00000000       0.00000000      -0.03742615
2
Properties=species:S:1:pos:R:3:forces:R:3 energy=-3.6819731298613068 pbc="F F F"
P        0.00000000       0.00000000       0.00000000       0.00000000       0.00000000       0.03640295
P        0.00000000       0.00000000       4.92727273       0.00000000       0.00000000      -0.03640295
2
Properties=species:S:1:pos:R:3:forces:R:3 energy=-3.6798320028366565 pbc="F F F"
P        0.00000000       0.00000000       0.00000000       0.00000000       0.00000000       0.03545519
P        0.00000000       0.00000000       4.98686869       0.00000000       0.00000000      -0.03545519
2
Properties=species:S:1:pos:R:3:forces:R:3 energy=-3.6777490145686573 pbc="F F F"
P        0.00000000       0.00000000       0.00000000       0.00000000       0.00000000       0.03447732
P        0.00000000       0.00000000       5.04646465       0.00000000       0.00000000      -0.03447732
2
Properties=species:S:1:pos:R:3:forces:R:3 energy=-3.6757253455506085 pbc="F F F"
P        0.00000000       0.00000000       0.00000000       0.00000000       0.00000000       0.03338139
P        0.00000000       0.00000000       5.10606061       0.00000000       0.00000000      -0.03338139
2
Properties=species:S:1:pos:R:3:forces:R:3 energy=-3.6737735950250294 pbc="F F F"
P        0.00000000       0.00000000       0.00000000       0.00000000       0.00000000       0.03209596
P        0.00000000       0.00000000       5.16565657       0.00000000       0.00000000      -0.03209596
2
Properties=species:S:1:pos:R:3:forces:R:3 energy=-3.6719063456033734 pbc="F F F"
P        0.00000000       0.00000000       0.00000000       0.00000000       0.00000000       0.03056003
P        0.00000000       0.00000000       5.22525253       0.00000000       0.00000000      -0.03056003
2
Properties=species:S:1:pos:R:3:forces:R:3 energy=-3.6701371359472765 pbc="F F F"
P        0.00000000       0.00000000       0.00000000       0.00000000       0.00000000       0.02871520
P        0.00000000       0.00000000       5.28484848       0.00000000       0.00000000      -0.02871520
2
Properties=species:S:1:pos:R:3:forces:R:3 energy=-3.6684881246131553 pbc="F F F"
P        0.00000000       0.00000000       0.00000000       0.00000000       0.00000000       0.02651809
P        0.00000000       0.00000000       5.34444444       0.00000000       0.00000000      -0.02651809
2
Properties=species:S:1:pos:R:3:forces:R:3 energy=-3.6669824578858305 pbc="F F F"
P        0.00000000       0.00000000       0.00000000       0.00000000       0.00000000       0.02395429
P        0.00000000       0.00000000       5.40404040       0.00000000       0.00000000      -0.02395429
2
Properties=species:S:1:pos:R:3:forces:R:3 energy=-3.665641436078044 pbc="F F F"
P        0.00000000       0.00000000       0.00000000       0.00000000       0.00000000       0.02106238
P        0.00000000       0.00000000       5.46363636       0.00000000       0.00000000      -0.02106238
2
Properties=species:S:1:pos:R:3:forces:R:3 energy=-3.6644768809681056 pbc="F F F"
P        0.00000000       0.00000000       0.00000000       0.00000000       0.00000000       0.01794012
P        0.00000000       0.00000000       5.52323232       0.00000000       0.00000000      -0.01794012
2
Properties=species:S:1:pos:R:3:forces:R:3 energy=-3.663502592562979 pbc="F F F"
P        0.00000000       0.00000000       0.00000000       0.00000000       0.00000000       0.01474239
P        0.00000000       0.00000000       5.58282828       0.00000000       0.00000000      -0.01474239
2
Properties=species:S:1:pos:R:3:forces:R:3 energy=-3.662717173853097 pbc="F F F"
P        0.00000000       0.00000000       0.00000000       0.00000000       0.00000000       0.01166348
P        0.00000000       0.00000000       5.64242424       0.00000000       0.00000000      -0.01166348
2
Properties=species:S:1:pos:R:3:forces:R:3 energy=-3.6621059571679275 pbc="F F F"
P        0.00000000       0.00000000       0.00000000       0.00000000       0.00000000       0.00890400
P        0.00000000       0.00000000       5.70202020       0.00000000       0.00000000      -0.00890400
2
Properties=species:S:1:pos:R:3:forces:R:3 energy=-3.661645762648111 pbc="F F F"
P        0.00000000       0.00000000       0.00000000       0.00000000       0.00000000       0.00663641
P        0.00000000       0.00000000       5.76161616       0.00000000       0.00000000      -0.00663641
2
Properties=species:S:1:pos:R:3:forces:R:3 energy=-3.6613039441751667 pbc="F F F"
P        0.00000000       0.00000000       0.00000000       0.00000000       0.00000000       0.00496479
P        0.00000000       0.00000000       5.82121212       0.00000000       0.00000000      -0.00496479
2
Properties=species:S:1:pos:R:3:forces:R:3 energy=-3.6610402959281707 pbc="F F F"
P        0.00000000       0.00000000       0.00000000       0.00000000       0.00000000       0.00390006
P        0.00000000       0.00000000       5.88080808       0.00000000       0.00000000      -0.00390006
2
Properties=species:S:1:pos:R:3:forces:R:3 energy=-3.660827079940377 pbc="F F F"
P        0.00000000       0.00000000       0.00000000       0.00000000       0.00000000       0.00333806
P        0.00000000       0.00000000       5.94040404       0.00000000       0.00000000      -0.00333806
2
Properties=species:S:1:pos:R:3:forces:R:3 energy=-3.660637579235575 pbc="F F F"
P        0.00000000       0.00000000       0.00000000       0.00000000       0.00000000       0.00307396
P        0.00000000       0.00000000       6.00000000       0.00000000       0.00000000      -0.00307396
