2
Properties=species:S:1:pos:R:3:forces:R:3 energy=4737322.9565149695 pbc="F F F"
P        0.00000000       0.00000000       0.00000000       0.00000000       0.00000000 -41106132.00000000
P        0.00000000       0.00000000       0.18000000       0.00000000       0.00000000 41106132.00000000
2
Properties=species:S:1:pos:R:3:forces:R:3 energy=2562499.9565149695 pbc="F F F"
P        0.00000000       0.00000000       0.00000000       0.00000000       0.00000000 -31725636.00000000
P        0.00000000       0.00000000       0.23878788       0.00000000       0.00000000 31725636.00000000
2
Properties=species:S:1:pos:R:3:forces:R:3 energy=1078707.8315149697 pbc="F F F"
P        0.00000000       0.00000000       0.00000000       0.00000000       0.00000000 -18665294.00000000
P        0.00000000       0.00000000       0.29757576       0.00000000       0.00000000 18665294.00000000
2
Properties=species:S:1:pos:R:3:forces:R:3 energy=324263.6752649791 pbc="F F F"
P        0.00000000       0.00000000       0.00000000       0.00000000       0.00000000 -7737906.00000000
P        0.00000000       0.00000000       0.35636364       0.00000000       0.00000000 7737906.00000000
2
Properties=species:S:1:pos:R:3:forces:R:3 energy=58179.66354624493 pbc="F F F"
P        0.00000000       0.00000000       0.00000000       0.00000000       0.00000000 -2194592.25000000
P        0.00000000       0.00000000       0.41515152       0.00000000       0.00000000 2194592.25000000
2
Properties=species:S:1:pos:R:3:forces:R:3 energy=282.0745570251299 pbc="F F F"
P        0.00000000       0.00000000       0.00000000       0.00000000       0.00000000 -304171.81250000
P        0.00000000       0.00000000       0.47393939       0.00000000       0.00000000  304171.81250000
2
Properties=species:S:1:pos:R:3:forces:R:3 energy=-979.3539707403771 pbc="F F F"
P        0.00000000       0.00000000       0.00000000       0.00000000       0.00000000   11018.23730469
P        0.00000000       0.00000000       0.53272727       0.00000000       0.00000000  -11018.23730469
2
Properties=species:S:1:pos:R:3:forces:R:3 energy=-358.5822421075427 pbc="F F F"
P        0.00000000       0.00000000       0.00000000       0.00000000       0.00000000    7867.19238281
P        0.00000000       0.00000000       0.59151515       0.00000000       0.00000000   -7867.19238281
2
Properties=species:S:1:pos:R:3:forces:R:3 energy=-54.82397928319604 pbc="F F F"
P        0.00000000       0.00000000       0.00000000       0.00000000       0.00000000    2789.30053711
P        0.00000000       0.00000000       0.65030303       0.00000000       0.00000000   -2789.30053711
2
Properties=species:S:1:pos:R:3:forces:R:3 energy=34.323153894450044 pbc="F F F"
P        0.00000000       0.00000000       0.00000000       0.00000000       0.00000000     511.36105347
P        0.00000000       0.00000000       0.70909091       0.00000000       0.00000000    -511.36105347
2
Properties=species:S:1:pos:R:3:forces:R:3 energy=45.64333715407722 pbc="F F F"
P        0.00000000       0.00000000       0.00000000       0.00000000       0.00000000     -77.09622955
P        0.00000000       0.00000000       0.76787879       0.00000000       0.00000000      77.09622955
2
Properties=species:S:1:pos:R:3:forces:R:3 energy=36.22302686103789 pbc="F F F"
P        0.00000000       0.00000000       0.00000000       0.00000000       0.00000000    -145.16468811
P        0.00000000       0.00000000       0.82666667       0.00000000       0.00000000     145.16468811
2
Properties=species:S:1:pos:R:3:forces:R:3 energy=30.858729969905824 pbc="F F F"
P        0.00000000       0.00000000       0.00000000       0.00000000       0.00000000     -30.77776718
P        0.00000000       0.00000000       0.88545455       0.00000000       0.00000000      30.77776718
2
Properties=species:S:1:pos:R:3:forces:R:3 energy=32.62132936978907 pbc="F F F"
P        0.00000000       0.00000000       0.00000000       0.00000000       0.00000000      16.68789673
P        0.00000000       0.00000000       0.94424242       0.00000000       0.00000000     -16.68789673
2
Properties=species:S:1:pos:R:3:forces:R:3 energy=30.932150870994278 pbc="F F F"
P        0.00000000       0.00000000       0.00000000       0.00000000       0.00000000     -53.98295212
P        0.00000000       0.00000000       1.00303030       0.00000000       0.00000000      53.98295212
2
Properties=species:S:1:pos:R:3:forces:R:3 energy=27.753369982168305 pbc="F F F"
P        0.00000000       0.00000000       0.00000000       0.00000000       0.00000000     -35.30156326
P        0.00000000       0.00000000       1.06181818       0.00000000       0.00000000      35.30156326
2
Properties=species:S:1:pos:R:3:forces:R:3 energy=25.800542071749234 pbc="F F F"
P        0.00000000       0.00000000       0.00000000       0.00000000       0.00000000     -45.01507950
P        0.00000000       0.00000000       1.12060606       0.00000000       0.00000000      45.01507950
2
Properties=species:S:1:pos:R:3:forces:R:3 energy=21.59700566668442 pbc="F F F"
P        0.00000000       0.00000000       0.00000000       0.00000000       0.00000000     -96.10569000
P        0.00000000       0.00000000       1.17939394       0.00000000       0.00000000      96.10569000
2
Properties=species:S:1:pos:R:3:forces:R:3 energy=15.849866650660676 pbc="F F F"
P        0.00000000       0.00000000       0.00000000       0.00000000       0.00000000     -96.10385895
P        0.00000000       0.00000000       1.23818182       0.00000000       0.00000000      96.10385895
2
Properties=species:S:1:pos:R:3:forces:R:3 energy=10.370221506523883 pbc="F F F"
P        0.00000000       0.00000000       0.00000000       0.00000000       0.00000000     -88.83143616
P        0.00000000       0.00000000       1.29696970       0.00000000       0.00000000      88.83143616
2
Properties=species:S:1:pos:R:3:forces:R:3 energy=5.701277738642292 pbc="F F F"
P        0.00000000       0.00000000       0.00000000       0.00000000       0.00000000     -70.72410583
P        0.00000000       0.00000000       1.35575758       0.00000000       0.00000000      70.72410583
2
Properties=species:S:1:pos:R:3:forces:R:3 energy=1.8962946515389845 pbc="F F F"
P        0.00000000       0.00000000       0.00000000       0.00000000       0.00000000     -57.97136307
P        0.00000000       0.00000000       1.41454545       0.00000000       0.00000000      57.97136307
2
Properties=species:S:1:pos:R:3:forces:R:3 energy=-1.1414070019587619 pbc="F F F"
P        0.00000000       0.00000000       0.00000000       0.00000000       0.00000000     -46.71028137
P        0.00000000       0.00000000       1.47333333       0.00000000       0.00000000      46.71028137
2
Properties=species:S:1:pos:R:3:forces:R:3 energy=-3.6243425174826562 pbc="F F F"
P        0.00000000       0.00000000       0.00000000       0.00000000       0.00000000     -37.43660736
P        0.00000000       0.00000000       1.53212121       0.00000000       0.00000000      37.43660736
2
Properties=species:S:1:pos:R:3:forces:R:3 energy=-5.530781827014996 pbc="F F F"
P        0.00000000       0.00000000       0.00000000       0.00000000       0.00000000     -27.29441643
P        0.00000000       0.00000000       1.59090909       0.00000000       0.00000000      27.29441643
2
Properties=species:S:1:pos:R:3:forces:R:3 energy=-6.842459494805318 pbc="F F F"
P        0.00000000       0.00000000       0.00000000       0.00000000       0.00000000     -17.67050934
P        0.00000000       0.00000000       1.64969697       0.00000000       0.00000000      17.67050934
2
Properties=species:S:1:pos:R:3:forces:R:3 energy=-7.666583470359656 pbc="F F F"
P        0.00000000       0.00000000       0.00000000       0.00000000       0.00000000     -10.88962936
P        0.00000000       0.00000000       1.70848485       0.00000000       0.00000000      10.88962936
2
Properties=species:S:1:pos:R:3:forces:R:3 energy=-8.171996650886978 pbc="F F F"
P        0.00000000       0.00000000       0.00000000       0.00000000       0.00000000      -6.68013430
P        0.00000000       0.00000000       1.76727273       0.00000000       0.00000000       6.68013430
2
Properties=species:S:1:pos:R:3:forces:R:3 energy=-8.478172961217252 pbc="F F F"
P        0.00000000       0.00000000       0.00000000       0.00000000       0.00000000      -3.72777104
P        0.00000000       0.00000000       1.82606061       0.00000000       0.00000000       3.72777104
2
Properties=species:S:1:pos:R:3:forces:R:3 energy=-8.609054742180156 pbc="F F F"
P        0.00000000       0.00000000       0.00000000       0.00000000       0.00000000      -0.84062797
P        0.00000000       0.00000000       1.88484848       0.00000000       0.00000000       0.84062797
2
Properties=species:S:1:pos:R:3:forces:R:3 energy=-8.591042373135108 pbc="F F F"
P        0.00000000       0.00000000       0.00000000       0.00000000       0.00000000       1.37684298
P        0.00000000       0.00000000       1.94363636       0.00000000       0.00000000      -1.37684298
2
Properties=species:S:1:pos:R:3:forces:R:3 energy=-8.465404849331373 pbc="F F F"
P        0.00000000       0.00000000       0.00000000       0.00000000       0.00000000       2.68729186
P        0.00000000       0.00000000       2.00242424       0.00000000       0.00000000      -2.68729186
2
Properties=species:S:1:pos:R:3:forces:R:3 energy=-8.295991129074082 pbc="F F F"
P        0.00000000       0.00000000       0.00000000       0.00000000       0.00000000       2.97665358
P        0.00000000       0.00000000       2.06121212       0.00000000       0.00000000      -2.97665358
2
Properties=species:S:1:pos:R:3:forces:R:3 energy=-8.115902801382624 pbc="F F F"
P        0.00000000       0.00000000       0.00000000       0.00000000       0.00000000       3.19047904
P        0.00000000       0.00000000       2.12000000       0.00000000       0.00000000      -3.19047904
2
Properties=species:S:1:pos:R:3:forces:R:3 energy=-7.918859754812575 pbc="F F F"
P        0.00000000       0.00000000       0.00000000       0.00000000       0.00000000       3.49911523
P        0.00000000       0.00000000       2.17878788       0.00000000       0.00000000      -3.49911523
2
Properties=species:S:1:pos:R:3:forces:R:3 energy=-7.706549362667219 pbc="F F F"
P        0.00000000       0.00000000       0.00000000       0.00000000       0.00000000       3.72531796
P        0.00000000       0.00000000       2.23757576       0.00000000       0.00000000      -3.72531796
2
Properties=species:S:1:pos:R:3:forces:R:3 energy=-7.478631492988799 pbc="F F F"
P        0.00000000       0.00000000       0.00000000       0.00000000       0.00000000       4.04463100
P        0.00000000       0.00000000       2.29636364       0.00000000       0.00000000      -4.04463100
2
Properties=species:S:1:pos:R:3:forces:R:3 energy=-7.232315089833332 pbc="F F F"
P        0.00000000       0.00000000       0.00000000       0.00000000       0.00000000       4.30492926
P        0.00000000       0.00000000       2.35515152       0.00000000       0.00000000      -4.30492926
2
Properties=species:S:1:pos:R:3:forces:R:3 energy=-6.974655456624209 pbc="F F F"
P        0.00000000       0.00000000       0.00000000       0.00000000       0.00000000       4.45485258
P        0.00000000       0.00000000       2.41393939       0.00000000       0.00000000      -4.45485258
2
Properties=species:S:1:pos:R:3:forces:R:3 energy=-6.70975958562924 pbc="F F F"
P        0.00000000       0.00000000       0.00000000       0.00000000       0.00000000       4.53903818
P        0.00000000       0.00000000       2.47272727       0.00000000       0.00000000      -4.53903818
2
Properties=species:S:1:pos:R:3:forces:R:3 energy=-6.443299675088815 pbc="F F F"
P        0.00000000       0.00000000       0.00000000       0.00000000       0.00000000       4.50702858
P        0.00000000       0.00000000       2.53151515       0.00000000       0.00000000      -4.50702858
2
Properties=species:S:1:pos:R:3:forces:R:3 energy=-6.181948690077095 pbc="F F F"
P        0.00000000       0.00000000       0.00000000       0.00000000       0.00000000       4.36961317
P        0.00000000       0.00000000       2.59030303       0.00000000       0.00000000      -4.36961317
2
Properties=species:S:1:pos:R:3:forces:R:3 energy=-5.930559585287549 pbc="F F F"
P        0.00000000       0.00000000       0.00000000       0.00000000       0.00000000       4.17870903
P        0.00000000       0.00000000       2.64909091       0.00000000       0.00000000      -4.17870903
2
Properties=species:S:1:pos:R:3:forces:R:3 energy=-5.691090407396846 pbc="F F F"
P        0.00000000       0.00000000       0.00000000       0.00000000       0.00000000       3.96255064
P        0.00000000       0.00000000       2.70787879       0.00000000       0.00000000      -3.96255064
2
Properties=species:S:1:pos:R:3:forces:R:3 energy=-5.4654883799483365 pbc="F F F"
P        0.00000000       0.00000000       0.00000000       0.00000000       0.00000000       3.70564342
P        0.00000000       0.00000000       2.76666667       0.00000000       0.00000000      -3.70564342
2
Properties=species:S:1:pos:R:3:forces:R:3 energy=-5.256015182961077 pbc="F F F"
P        0.00000000       0.00000000       0.00000000       0.00000000       0.00000000       3.41718292
P        0.00000000       0.00000000       2.82545455       0.00000000       0.00000000      -3.41718292
2
Properties=species:S:1:pos:R:3:forces:R:3 energy=-5.063991032871651 pbc="F F F"
P        0.00000000       0.00000000       0.00000000       0.00000000       0.00000000       3.11423469
P        0.00000000       0.00000000       2.88424242       0.00000000       0.00000000      -3.11423469
2
Properties=species:S:1:pos:R:3:forces:R:3 energy=-4.889896209069662 pbc="F F F"
P        0.00000000       0.00000000       0.00000000       0.00000000       0.00000000       2.80930901
P        0.00000000       0.00000000       2.94303030       0.00000000       0.00000000      -2.80930901
2
Properties=species:S:1:pos:R:3:forces:R:3 energy=-4.733452925258906 pbc="F F F"
P        0.00000000       0.00000000       0.00000000       0.00000000       0.00000000       2.51612258
P        0.00000000       0.00000000       3.00181818       0.00000000       0.00000000      -2.51612258
2
Properties=species:S:1:pos:R:3:forces:R:3 energy=-4.593602910953842 pbc="F F F"
P        0.00000000       0.00000000       0.00000000       0.00000000       0.00000000       2.24589539
P        0.00000000       0.00000000       3.06060606       0.00000000       0.00000000      -2.24589539
2
Properties=species:S:1:pos:R:3:forces:R:3 energy=-4.468947028209366 pbc="F F F"
P        0.00000000       0.00000000       0.00000000       0.00000000       0.00000000       1.99810231
P        0.00000000       0.00000000       3.11939394       0.00000000       0.00000000      -1.99810231
2
Properties=species:S:1:pos:R:3:forces:R:3 energy=-4.3583623767187785 pbc="F F F"
P        0.00000000       0.00000000       0.00000000       0.00000000       0.00000000       1.76642168
P        0.00000000       0.00000000       3.17818182       0.00000000       0.00000000      -1.76642168
2
Properties=species:S:1:pos:R:3:forces:R:3 energy=-4.26097532630368 pbc="F F F"
P        0.00000000       0.00000000       0.00000000       0.00000000       0.00000000       1.54937959
P        0.00000000       0.00000000       3.23696970       0.00000000       0.00000000      -1.54937959
2
Properties=species:S:1:pos:R:3:forces:R:3 energy=-4.175841644486841 pbc="F F F"
P        0.00000000       0.00000000       0.00000000       0.00000000       0.00000000       1.35027778
P        0.00000000       0.00000000       3.29575758       0.00000000       0.00000000      -1.35027778
2
Properties=species:S:1:pos:R:3:forces:R:3 energy=-4.101796313138427 pbc="F F F"
P        0.00000000       0.00000000       0.00000000       0.00000000       0.00000000       1.17244124
P        0.00000000       0.00000000       3.35454545       0.00000000       0.00000000      -1.17244124
2
Properties=species:S:1:pos:R:3:forces:R:3 energy=-4.037576276382744 pbc="F F F"
P        0.00000000       0.00000000       0.00000000       0.00000000       0.00000000       1.01566851
P        0.00000000       0.00000000       3.41333333       0.00000000       0.00000000      -1.01566851
2
Properties=species:S:1:pos:R:3:forces:R:3 energy=-3.9820206675354703 pbc="F F F"
P        0.00000000       0.00000000       0.00000000       0.00000000       0.00000000       0.87723786
P        0.00000000       0.00000000       3.47212121       0.00000000       0.00000000      -0.87723786
2
Properties=species:S:1:pos:R:3:forces:R:3 energy=-3.9341281972973676 pbc="F F F"
P        0.00000000       0.00000000       0.00000000       0.00000000       0.00000000       0.75450945
P        0.00000000       0.00000000       3.53090909       0.00000000       0.00000000      -0.75450945
2
Properties=species:S:1:pos:R:3:forces:R:3 energy=-3.8930406148453693 pbc="F F F"
P        0.00000000       0.00000000       0.00000000       0.00000000       0.00000000       0.64535278
P        0.00000000       0.00000000       3.58969697       0.00000000       0.00000000      -0.64535278
2
Properties=species:S:1:pos:R:3:forces:R:3 energy=-3.8580247654186106 pbc="F F F"
P        0.00000000       0.00000000       0.00000000       0.00000000       0.00000000       0.54767704
P        0.00000000       0.00000000       3.64848485       0.00000000       0.00000000      -0.54767704
2
Properties=species:S:1:pos:R:3:forces:R:3 energy=-3.8284564982322897 pbc="F F F"
P        0.00000000       0.00000000       0.00000000       0.00000000       0.00000000       0.45979622
P        0.00000000       0.00000000       3.70727273       0.00000000       0.00000000      -0.45979622
2
Properties=species:S:1:pos:R:3:forces:R:3 energy=-3.803786346873567 pbc="F F F"
P        0.00000000       0.00000000       0.00000000       0.00000000       0.00000000       0.38104266
P        0.00000000       0.00000000       3.76606061       0.00000000       0.00000000      -0.38104266
2
Properties=species:S:1:pos:R:3:forces:R:3 energy=-3.7834707158631407 pbc="F F F"
P        0.00000000       0.00000000       0.00000000       0.00000000       0.00000000       0.31171510
P        0.00000000       0.00000000       3.82484848       0.00000000       0.00000000      -0.31171510
2
Properties=species:S:1:pos:R:3:forces:R:3 energy=-3.7669384386977334 pbc="F F F"
P        0.00000000       0.00000000       0.00000000       0.00000000       0.00000000       0.25243431
P        0.00000000       0.00000000       3.88363636       0.00000000       0.00000000      -0.25243431
2
Properties=species:S:1:pos:R:3:forces:R:3 energy=-3.7535887358690143 pbc="F F F"
P        0.00000000       0.00000000       0.00000000       0.00000000       0.00000000       0.20346212
P        0.00000000       0.00000000       3.94242424       0.00000000       0.00000000      -0.20346212
2
Properties=species:S:1:pos:R:3:forces:R:3 energy=-3.7428234576405854 pbc="F F F"
P        0.00000000       0.00000000       0.00000000       0.00000000       0.00000000       0.16432320
P        0.00000000       0.00000000       4.00121212       0.00000000       0.00000000      -0.16432320
2
Properties=species:S:1:pos:R:3:forces:R:3 energy=-3.7340965879973256 pbc="F F F"
P        0.00000000       0.00000000       0.00000000       0.00000000       0.00000000       0.13383415
P        0.00000000       0.00000000       4.06000000       0.00000000       0.00000000      -0.13383415
2
Properties=species:S:1:pos:R:3:forces:R:3 energy=-3.7269493769557225 pbc="F F F"
P        0.00000000       0.00000000       0.00000000       0.00000000       0.00000000       0.11042337
P        0.00000000       0.00000000       4.11878788       0.00000000       0.00000000      -0.11042337
2
Properties=species:S:1:pos:R:3:forces:R:3 energy=-3.7210055104197597 pbc="F F F"
P        0.00000000       0.00000000       0.00000000       0.00000000       0.00000000       0.09254146
P        0.00000000       0.00000000       4.17757576       0.00000000       0.00000000      -0.09254146
2
Properties=species:S:1:pos:R:3:forces:R:3 energy=-3.71598438084188 pbc="F F F"
P        0.00000000       0.00000000       0.00000000       0.00000000       0.00000000       0.07894292
P        0.00000000       0.00000000       4.23636364       0.00000000       0.00000000      -0.07894292
2
Properties=species:S:1:pos:R:3:forces:R:3 energy=-3.711659054277068 pbc="F F F"
P        0.00000000       0.00000000       0.00000000       0.00000000       0.00000000       0.06871801
P        0.00000000       0.00000000       4.29515152       0.00000000       0.00000000      -0.06871801
2
Properties=species:S:1:pos:R:3:forces:R:3 energy=-3.707853464796786 pbc="F F F"
P        0.00000000       0.00000000       0.00000000       0.00000000       0.00000000       0.06116320
P        0.00000000       0.00000000       4.35393939       0.00000000       0.00000000      -0.06116320
2
Properties=species:S:1:pos:R:3:forces:R:3 energy=-3.7044261196622195 pbc="F F F"
P        0.00000000       0.00000000       0.00000000       0.00000000       0.00000000       0.05563818
P        0.00000000       0.00000000       4.41272727       0.00000000       0.00000000      -0.05563818
2
Properties=species:S:1:pos:R:3:forces:R:3 energy=-3.7012844931380444 pbc="F F F"
P        0.00000000       0.00000000       0.00000000       0.00000000       0.00000000       0.05153505
P        0.00000000       0.00000000       4.47151515       0.00000000       0.00000000      -0.05153505
2
Properties=species:S:1:pos:R:3:forces:R:3 energy=-3.69835069896877 pbc="F F F"
P        0.00000000       0.00000000       0.00000000       0.00000000       0.00000000       0.04833245
P        0.00000000       0.00000000       4.53030303       0.00000000       0.00000000      -0.04833245
2
Properties=species:S:1:pos:R:3:forces:R:3 energy=-3.6955901766359602 pbc="F F F"
P        0.00000000       0.00000000       0.00000000       0.00000000       0.00000000       0.04566778
P        0.00000000       0.00000000       4.58909091       0.00000000       0.00000000      -0.04566778
2
Properties=species:S:1:pos:R:3:forces:R:3 energy=-3.6929745566646064 pbc="F F F"
P        0.00000000       0.00000000       0.00000000       0.00000000       0.00000000       0.04335909
P        0.00000000       0.00000000       4.64787879       0.00000000       0.00000000      -0.04335909
2
Properties=species:S:1:pos:R:3:forces:R:3 energy=-3.6904845533242967 pbc="F F F"
P        0.00000000       0.00000000       0.00000000       0.00000000       0.00000000       0.04135751
P        0.00000000       0.00000000       4.70666667       0.00000000       0.00000000      -0.04135751
2
Properties=species:S:1:pos:R:3:forces:R:3 energy=-3.688105303963587 pbc="F F F"
P        0.00000000       0.00000000       0.00000000       0.00000000       0.00000000       0.03966887
P        0.00000000       0.00000000       4.76545455       0.00000000       0.00000000      -0.03966887
2
Properties=species:S:1:pos:R:3:forces:R:3 energy=-3.6858149534286033 pbc="F F F"
P        0.00000000       0.00000000       0.00000000       0.00000000       0.00000000       0.03828412
P        0.00000000       0.00000000       4.82424242       0.00000000       0.00000000      -0.03828412
2
Properties=species:S:1:pos:R:3:forces:R:3 energy=-3.6835990557963636 pbc="F F F"
P        0.00000000       0.00000000       0.00000000       0.00000000       0.00000000       0.03714914
P        0.00000000       0.00000000       4.88303030       0.00000000       0.00000000      -0.03714914
2
Properties=species:S:1:pos:R:3:forces:R:3 energy=-3.6814457980836415 pbc="F F F"
P        0.00000000       0.00000000       0.00000000       0.00000000       0.00000000       0.03616909
P        0.00000000       0.00000000       4.94181818       0.00000000       0.00000000      -0.03616909
2
Properties=species:S:1:pos:R:3:forces:R:3 energy=-3.6793441990203726 pbc="F F F"
P        0.00000000       0.00000000       0.00000000       0.00000000       0.00000000       0.03523598
P        0.00000000       0.00000000       5.00060606       0.00000000       0.00000000      -0.03523598
2
Properties=species:S:1:pos:R:3:forces:R:3 energy=-3.6773032070866076 pbc="F F F"
P        0.00000000       0.00000000       0.00000000       0.00000000       0.00000000       0.03425183
P        0.00000000       0.00000000       5.05939394       0.00000000       0.00000000      -0.03425183
2
Properties=species:S:1:pos:R:3:forces:R:3 energy=-3.675321204317184 pbc="F F F"
P        0.00000000       0.00000000       0.00000000       0.00000000       0.00000000       0.03313726
P        0.00000000       0.00000000       5.11818182       0.00000000       0.00000000      -0.03313726
2
Properties=species:S:1:pos:R:3:forces:R:3 energy=-3.673411796689958 pbc="F F F"
P        0.00000000       0.00000000       0.00000000       0.00000000       0.00000000       0.03182545
P        0.00000000       0.00000000       5.17696970       0.00000000       0.00000000      -0.03182545
2
Properties=species:S:1:pos:R:3:forces:R:3 energy=-3.671584785780944 pbc="F F F"
P        0.00000000       0.00000000       0.00000000       0.00000000       0.00000000       0.03025874
P        0.00000000       0.00000000       5.23575758       0.00000000       0.00000000      -0.03025874
2
Properties=species:S:1:pos:R:3:forces:R:3 energy=-3.6698594940702076 pbc="F F F"
P        0.00000000       0.00000000       0.00000000       0.00000000       0.00000000       0.02838258
P        0.00000000       0.00000000       5.29454545       0.00000000       0.00000000      -0.02838258
2
Properties=species:S:1:pos:R:3:forces:R:3 energy=-3.668253392522048 pbc="F F F"
P        0.00000000       0.00000000       0.00000000       0.00000000       0.00000000       0.02615863
P        0.00000000       0.00000000       5.35333333       0.00000000       0.00000000      -0.02615863
2
Properties=species:S:1:pos:R:3:forces:R:3 energy=-3.6667906571233346 pbc="F F F"
P        0.00000000       0.00000000       0.00000000       0.00000000       0.00000000       0.02358032
P        0.00000000       0.00000000       5.41212121       0.00000000       0.00000000      -0.02358032
2
Properties=species:S:1:pos:R:3:forces:R:3 energy=-3.665489794876058 pbc="F F F"
P        0.00000000       0.00000000       0.00000000       0.00000000       0.00000000       0.02069167
P        0.00000000       0.00000000       5.47090909       0.00000000       0.00000000      -0.02069167
2
Properties=species:S:1:pos:R:3:forces:R:3 energy=-3.6643607879220936 pbc="F F F"
P        0.00000000       0.00000000       0.00000000       0.00000000       0.00000000       0.01759363
P        0.00000000       0.00000000       5.52969697       0.00000000       0.00000000      -0.01759363
2
Properties=species:S:1:pos:R:3:forces:R:3 energy=-3.663420364607575 pbc="F F F"
P        0.00000000       0.00000000       0.00000000       0.00000000       0.00000000       0.01444137
P        0.00000000       0.00000000       5.58848485       0.00000000       0.00000000      -0.01444137
2
Properties=species:S:1:pos:R:3:forces:R:3 energy=-3.6626633805418902 pbc="F F F"
P        0.00000000       0.00000000       0.00000000       0.00000000       0.00000000       0.01142495
P        0.00000000       0.00000000       5.64727273       0.00000000       0.00000000      -0.01142495
2
Properties=species:S:1:pos:R:3:forces:R:3 energy=-3.6620694982776736 pbc="F F F"
P        0.00000000       0.00000000       0.00000000       0.00000000       0.00000000       0.00873319
P        0.00000000       0.00000000       5.70606061       0.00000000       0.00000000      -0.00873319
2
Properties=species:S:1:pos:R:3:forces:R:3 energy=-3.6616251329074623 pbc="F F F"
P        0.00000000       0.00000000       0.00000000       0.00000000       0.00000000       0.00652883
P        0.00000000       0.00000000       5.76484848       0.00000000       0.00000000      -0.00652883
2
Properties=species:S:1:pos:R:3:forces:R:3 energy=-3.6612910156535814 pbc="F F F"
P        0.00000000       0.00000000       0.00000000       0.00000000       0.00000000       0.00490933
P        0.00000000       0.00000000       5.82363636       0.00000000       0.00000000      -0.00490933
2
Properties=species:S:1:pos:R:3:forces:R:3 energy=-3.661034613251215 pbc="F F F"
P        0.00000000       0.00000000       0.00000000       0.00000000       0.00000000       0.00387849
P        0.00000000       0.00000000       5.88242424       0.00000000       0.00000000      -0.00387849
2
Properties=species:S:1:pos:R:3:forces:R:3 energy=-3.660824423325528 pbc="F F F"
P        0.00000000       0.00000000       0.00000000       0.00000000       0.00000000       0.00333315
P        0.00000000       0.00000000       5.94121212       0.00000000       0.00000000      -0.00333315
2
Properties=species:S:1:pos:R:3:forces:R:3 energy=-3.6606385329098914 pbc="F F F"
P        0.00000000       0.00000000       0.00000000       0.00000000       0.00000000       0.00307396
P        0.00000000       0.00000000       6.00000000       0.00000000       0.00000000      -0.00307396
