2
Properties=species:S:1:pos:R:3:forces:R:3 energy=-1357964.6684273 pbc="F F F"
Pb       0.00000000       0.00000000       0.00000000       0.00000000       0.00000000 16009412.00000000
Pb       0.00000000       0.00000000       0.18000000       0.00000000       0.00000000 -16009412.00000000
2
Properties=species:S:1:pos:R:3:forces:R:3 energy=-586141.2934273 pbc="F F F"
Pb       0.00000000       0.00000000       0.00000000       0.00000000       0.00000000 10012521.00000000
Pb       0.00000000       0.00000000       0.23878788       0.00000000       0.00000000 -10012521.00000000
2
Properties=species:S:1:pos:R:3:forces:R:3 energy=-171394.62155230003 pbc="F F F"
Pb       0.00000000       0.00000000       0.00000000       0.00000000       0.00000000 4396923.00000000
Pb       0.00000000       0.00000000       0.29757576       0.00000000       0.00000000 -4396923.00000000
2
Properties=species:S:1:pos:R:3:forces:R:3 energy=-21793.250458550025 pbc="F F F"
Pb       0.00000000       0.00000000       0.00000000       0.00000000       0.00000000 1108011.50000000
Pb       0.00000000       0.00000000       0.35636364       0.00000000       0.00000000 -1108011.50000000
2
Properties=species:S:1:pos:R:3:forces:R:3 energy=-1424.2737739797108 pbc="F F F"
Pb       0.00000000       0.00000000       0.00000000       0.00000000       0.00000000   58855.21875000
Pb       0.00000000       0.00000000       0.41515152       0.00000000       0.00000000  -58855.21875000
2
Properties=species:S:1:pos:R:3:forces:R:3 energy=-108.13298875608997 pbc="F F F"
Pb       0.00000000       0.00000000       0.00000000       0.00000000       0.00000000    4162.51416016
Pb       0.00000000       0.00000000       0.47393939       0.00000000       0.00000000   -4162.51416016
2
Properties=species:S:1:pos:R:3:forces:R:3 energy=-10.64466171705149 pbc="F F F"
Pb       0.00000000       0.00000000       0.00000000       0.00000000       0.00000000     465.94396973
Pb       0.00000000       0.00000000       0.53272727       0.00000000       0.00000000    -465.94396973
2
Properties=species:S:1:pos:R:3:forces:R:3 energy=18.35018083125232 pbc="F F F"
Pb       0.00000000       0.00000000       0.00000000       0.00000000       0.00000000      88.95323181
Pb       0.00000000       0.00000000       0.59151515       0.00000000       0.00000000     -88.95323181
2
Properties=species:S:1:pos:R:3:forces:R:3 energy=15.61443638661218 pbc="F F F"
Pb       0.00000000       0.00000000       0.00000000       0.00000000       0.00000000     -79.63724518
Pb       0.00000000       0.00000000       0.65030303       0.00000000       0.00000000      79.63724518
2
Properties=species:S:1:pos:R:3:forces:R:3 energy=10.569011022258273 pbc="F F F"
Pb       0.00000000       0.00000000       0.00000000       0.00000000       0.00000000     -86.50094604
Pb       0.00000000       0.00000000       0.70909091       0.00000000       0.00000000      86.50094604
2
Properties=species:S:1:pos:R:3:forces:R:3 energy=6.320165997883172 pbc="F F F"
Pb       0.00000000       0.00000000       0.00000000       0.00000000       0.00000000     -53.13314056
Pb       0.00000000       0.00000000       0.76787879       0.00000000       0.00000000      53.13314056
2
Properties=species:S:1:pos:R:3:forces:R:3 energy=4.61091089341891 pbc="F F F"
Pb       0.00000000       0.00000000       0.00000000       0.00000000       0.00000000       0.28792503
Pb       0.00000000       0.00000000       0.82666667       0.00000000       0.00000000      -0.28792503
2
Properties=species:S:1:pos:R:3:forces:R:3 energy=5.420606301981111 pbc="F F F"
Pb       0.00000000       0.00000000       0.00000000       0.00000000       0.00000000      17.78336334
Pb       0.00000000       0.00000000       0.88545455       0.00000000       0.00000000     -17.78336334
2
Properties=species:S:1:pos:R:3:forces:R:3 energy=6.026043808811864 pbc="F F F"
Pb       0.00000000       0.00000000       0.00000000       0.00000000       0.00000000      -0.09667545
Pb       0.00000000       0.00000000       0.94424242       0.00000000       0.00000000       0.09667545
2
Properties=species:S:1:pos:R:3:forces:R:3 energy=5.290659178157361 pbc="F F F"
Pb       0.00000000       0.00000000       0.00000000       0.00000000       0.00000000      -3.78079510
Pb       0.00000000       0.00000000       1.00303030       0.00000000       0.00000000       3.78079510
2
Properties=species:S:1:pos:R:3:forces:R:3 energy=10.208519630605636 pbc="F F F"
Pb       0.00000000       0.00000000       0.00000000       0.00000000       0.00000000     148.48847961
Pb       0.00000000       0.00000000       1.06181818       0.00000000       0.00000000    -148.48847961
2
Properties=species:S:1:pos:R:3:forces:R:3 energy=21.44759680885786 pbc="F F F"
Pb       0.00000000       0.00000000       0.00000000       0.00000000       0.00000000     210.85276794
Pb       0.00000000       0.00000000       1.12060606       0.00000000       0.00000000    -210.85276794
2
Properties=species:S:1:pos:R:3:forces:R:3 energy=32.64800456882302 pbc="F F F"
Pb       0.00000000       0.00000000       0.00000000       0.00000000       0.00000000     139.28399658
Pb       0.00000000       0.00000000       1.17939394       0.00000000       0.00000000    -139.28399658
2
Properties=species:S:1:pos:R:3:forces:R:3 energy=37.983454741087485 pbc="F F F"
Pb       0.00000000       0.00000000       0.00000000       0.00000000       0.00000000      38.60455322
Pb       0.00000000       0.00000000       1.23818182       0.00000000       0.00000000     -38.60455322
2
Properties=species:S:1:pos:R:3:forces:R:3 energy=38.91012984352353 pbc="F F F"
Pb       0.00000000       0.00000000       0.00000000       0.00000000       0.00000000      -1.24473631
Pb       0.00000000       0.00000000       1.29696970       0.00000000       0.00000000       1.24473631
2
Properties=species:S:1:pos:R:3:forces:R:3 energy=38.67704575076087 pbc="F F F"
Pb       0.00000000       0.00000000       0.00000000       0.00000000       0.00000000      -7.77333593
Pb       0.00000000       0.00000000       1.35575758       0.00000000       0.00000000       7.77333593
2
Properties=species:S:1:pos:R:3:forces:R:3 energy=37.573982182906256 pbc="F F F"
Pb       0.00000000       0.00000000       0.00000000       0.00000000       0.00000000     -28.58504295
Pb       0.00000000       0.00000000       1.41454545       0.00000000       0.00000000      28.58504295
2
Properties=species:S:1:pos:R:3:forces:R:3 energy=35.51829762709621 pbc="F F F"
Pb       0.00000000       0.00000000       0.00000000       0.00000000       0.00000000     -43.39638901
Pb       0.00000000       0.00000000       1.47333333       0.00000000       0.00000000      43.39638901
2
Properties=species:S:1:pos:R:3:forces:R:3 energy=32.290753881276274 pbc="F F F"
Pb       0.00000000       0.00000000       0.00000000       0.00000000       0.00000000     -62.98280716
Pb       0.00000000       0.00000000       1.53212121       0.00000000       0.00000000      62.98280716
2
Properties=species:S:1:pos:R:3:forces:R:3 energy=28.479552575979557 pbc="F F F"
Pb       0.00000000       0.00000000       0.00000000       0.00000000       0.00000000     -66.51094818
Pb       0.00000000       0.00000000       1.59090909       0.00000000       0.00000000      66.51094818
2
Properties=species:S:1:pos:R:3:forces:R:3 energy=24.439989009689892 pbc="F F F"
Pb       0.00000000       0.00000000       0.00000000       0.00000000       0.00000000     -70.63849640
Pb       0.00000000       0.00000000       1.64969697       0.00000000       0.00000000      70.63849640
2
Properties=species:S:1:pos:R:3:forces:R:3 energy=20.162602869404882 pbc="F F F"
Pb       0.00000000       0.00000000       0.00000000       0.00000000       0.00000000     -74.02012634
Pb       0.00000000       0.00000000       1.70848485       0.00000000       0.00000000      74.02012634
2
Properties=species:S:1:pos:R:3:forces:R:3 energy=15.960746879347566 pbc="F F F"
Pb       0.00000000       0.00000000       0.00000000       0.00000000       0.00000000     -68.25790405
Pb       0.00000000       0.00000000       1.76727273       0.00000000       0.00000000      68.25790405
2
Properties=species:S:1:pos:R:3:forces:R:3 energy=12.082710315688887 pbc="F F F"
Pb       0.00000000       0.00000000       0.00000000       0.00000000       0.00000000     -63.53976059
Pb       0.00000000       0.00000000       1.82606061       0.00000000       0.00000000      63.53976059
2
Properties=species:S:1:pos:R:3:forces:R:3 energy=8.582137564635135 pbc="F F F"
Pb       0.00000000       0.00000000       0.00000000       0.00000000       0.00000000     -55.42953873
Pb       0.00000000       0.00000000       1.88484848       0.00000000       0.00000000      55.42953873
2
Properties=species:S:1:pos:R:3:forces:R:3 energy=5.597625357320288 pbc="F F F"
Pb       0.00000000       0.00000000       0.00000000       0.00000000       0.00000000     -45.63758850
Pb       0.00000000       0.00000000       1.94363636       0.00000000       0.00000000      45.63758850
2
Properties=species:S:1:pos:R:3:forces:R:3 energy=3.21708650034375 pbc="F F F"
Pb       0.00000000       0.00000000       0.00000000       0.00000000       0.00000000     -35.68455505
Pb       0.00000000       0.00000000       2.00242424       0.00000000       0.00000000      35.68455505
2
Properties=species:S:1:pos:R:3:forces:R:3 energy=1.3702182775388132 pbc="F F F"
Pb       0.00000000       0.00000000       0.00000000       0.00000000       0.00000000     -27.39957809
Pb       0.00000000       0.00000000       2.06121212       0.00000000       0.00000000      27.39957809
2
Properties=species:S:1:pos:R:3:forces:R:3 energy=-0.04037491656650597 pbc="F F F"
Pb       0.00000000       0.00000000       0.00000000       0.00000000       0.00000000     -20.86280632
Pb       0.00000000       0.00000000       2.12000000       0.00000000       0.00000000      20.86280632
2
Properties=species:S:1:pos:R:3:forces:R:3 energy=-1.1128716477223162 pbc="F F F"
Pb       0.00000000       0.00000000       0.00000000       0.00000000       0.00000000     -15.89250374
Pb       0.00000000       0.00000000       2.17878788       0.00000000       0.00000000      15.89250374
2
Properties=species:S:1:pos:R:3:forces:R:3 energy=-1.9338366073431317 pbc="F F F"
Pb       0.00000000       0.00000000       0.00000000       0.00000000       0.00000000     -12.18222332
Pb       0.00000000       0.00000000       2.23757576       0.00000000       0.00000000      12.18222332
2
Properties=species:S:1:pos:R:3:forces:R:3 energy=-2.561755447609873 pbc="F F F"
Pb       0.00000000       0.00000000       0.00000000       0.00000000       0.00000000      -9.32604122
Pb       0.00000000       0.00000000       2.29636364       0.00000000       0.00000000       9.32604122
2
Properties=species:S:1:pos:R:3:forces:R:3 energy=-3.0455289106507752 pbc="F F F"
Pb       0.00000000       0.00000000       0.00000000       0.00000000       0.00000000      -7.23353720
Pb       0.00000000       0.00000000       2.35515152       0.00000000       0.00000000       7.23353720
2
Properties=species:S:1:pos:R:3:forces:R:3 energy=-3.4208794090597467 pbc="F F F"
Pb       0.00000000       0.00000000       0.00000000       0.00000000       0.00000000      -5.58429766
Pb       0.00000000       0.00000000       2.41393939       0.00000000       0.00000000       5.58429766
2
Properties=species:S:1:pos:R:3:forces:R:3 energy=-3.706437419766461 pbc="F F F"
Pb       0.00000000       0.00000000       0.00000000       0.00000000       0.00000000      -4.16654587
Pb       0.00000000       0.00000000       2.47272727       0.00000000       0.00000000       4.16654587
2
Properties=species:S:1:pos:R:3:forces:R:3 energy=-3.915070883825393 pbc="F F F"
Pb       0.00000000       0.00000000       0.00000000       0.00000000       0.00000000      -2.96701002
Pb       0.00000000       0.00000000       2.53151515       0.00000000       0.00000000       2.96701002
2
Properties=species:S:1:pos:R:3:forces:R:3 energy=-4.05971172716924 pbc="F F F"
Pb       0.00000000       0.00000000       0.00000000       0.00000000       0.00000000      -1.99380791
Pb       0.00000000       0.00000000       2.59030303       0.00000000       0.00000000       1.99380791
2
Properties=species:S:1:pos:R:3:forces:R:3 energy=-4.154013561602073 pbc="F F F"
Pb       0.00000000       0.00000000       0.00000000       0.00000000       0.00000000      -1.24798071
Pb       0.00000000       0.00000000       2.64909091       0.00000000       0.00000000       1.24798071
2
Properties=species:S:1:pos:R:3:forces:R:3 energy=-4.209461231826768 pbc="F F F"
Pb       0.00000000       0.00000000       0.00000000       0.00000000       0.00000000      -0.65611714
Pb       0.00000000       0.00000000       2.70787879       0.00000000       0.00000000       0.65611714
2
Properties=species:S:1:pos:R:3:forces:R:3 energy=-4.232753830918548 pbc="F F F"
Pb       0.00000000       0.00000000       0.00000000       0.00000000       0.00000000      -0.14946358
Pb       0.00000000       0.00000000       2.76666667       0.00000000       0.00000000       0.14946358
2
Properties=species:S:1:pos:R:3:forces:R:3 energy=-4.228925567847212 pbc="F F F"
Pb       0.00000000       0.00000000       0.00000000       0.00000000       0.00000000       0.26073280
Pb       0.00000000       0.00000000       2.82545455       0.00000000       0.00000000      -0.26073280
2
Properties=species:S:1:pos:R:3:forces:R:3 energy=-4.204437757008959 pbc="F F F"
Pb       0.00000000       0.00000000       0.00000000       0.00000000       0.00000000       0.55305469
Pb       0.00000000       0.00000000       2.88424242       0.00000000       0.00000000      -0.55305469
2
Properties=species:S:1:pos:R:3:forces:R:3 energy=-4.165889504403583 pbc="F F F"
Pb       0.00000000       0.00000000       0.00000000       0.00000000       0.00000000       0.74437249
Pb       0.00000000       0.00000000       2.94303030       0.00000000       0.00000000      -0.74437249
2
Properties=species:S:1:pos:R:3:forces:R:3 energy=-4.1182062079422685 pbc="F F F"
Pb       0.00000000       0.00000000       0.00000000       0.00000000       0.00000000       0.86967254
Pb       0.00000000       0.00000000       3.00181818       0.00000000       0.00000000      -0.86967254
2
Properties=species:S:1:pos:R:3:forces:R:3 energy=-4.064362158438911 pbc="F F F"
Pb       0.00000000       0.00000000       0.00000000       0.00000000       0.00000000       0.95732737
Pb       0.00000000       0.00000000       3.06060606       0.00000000       0.00000000      -0.95732737
2
Properties=species:S:1:pos:R:3:forces:R:3 energy=-4.006152509307224 pbc="F F F"
Pb       0.00000000       0.00000000       0.00000000       0.00000000       0.00000000       1.01889944
Pb       0.00000000       0.00000000       3.11939394       0.00000000       0.00000000      -1.01889944
2
Properties=species:S:1:pos:R:3:forces:R:3 energy=-3.9450454227688394 pbc="F F F"
Pb       0.00000000       0.00000000       0.00000000       0.00000000       0.00000000       1.05594671
Pb       0.00000000       0.00000000       3.17818182       0.00000000       0.00000000      -1.05594671
2
Properties=species:S:1:pos:R:3:forces:R:3 energy=-3.882467649490239 pbc="F F F"
Pb       0.00000000       0.00000000       0.00000000       0.00000000       0.00000000       1.06909239
Pb       0.00000000       0.00000000       3.23696970       0.00000000       0.00000000      -1.06909239
2
Properties=species:S:1:pos:R:3:forces:R:3 energy=-3.8197775189353673 pbc="F F F"
Pb       0.00000000       0.00000000       0.00000000       0.00000000       0.00000000       1.06027937
Pb       0.00000000       0.00000000       3.29575758       0.00000000       0.00000000      -1.06027937
2
Properties=species:S:1:pos:R:3:forces:R:3 energy=-3.7581567949556494 pbc="F F F"
Pb       0.00000000       0.00000000       0.00000000       0.00000000       0.00000000       1.03361952
Pb       0.00000000       0.00000000       3.35454545       0.00000000       0.00000000      -1.03361952
2
Properties=species:S:1:pos:R:3:forces:R:3 energy=-3.6984644639517823 pbc="F F F"
Pb       0.00000000       0.00000000       0.00000000       0.00000000       0.00000000       0.99603075
Pb       0.00000000       0.00000000       3.41333333       0.00000000       0.00000000      -0.99603075
2
Properties=species:S:1:pos:R:3:forces:R:3 energy=-3.64110169530135 pbc="F F F"
Pb       0.00000000       0.00000000       0.00000000       0.00000000       0.00000000       0.95559269
Pb       0.00000000       0.00000000       3.47212121       0.00000000       0.00000000      -0.95559269
2
Properties=species:S:1:pos:R:3:forces:R:3 energy=-3.5860509757002226 pbc="F F F"
Pb       0.00000000       0.00000000       0.00000000       0.00000000       0.00000000       0.91793573
Pb       0.00000000       0.00000000       3.53090909       0.00000000       0.00000000      -0.91793573
2
Properties=species:S:1:pos:R:3:forces:R:3 energy=-3.5330996990821486 pbc="F F F"
Pb       0.00000000       0.00000000       0.00000000       0.00000000       0.00000000       0.88400400
Pb       0.00000000       0.00000000       3.58969697       0.00000000       0.00000000      -0.88400400
2
Properties=species:S:1:pos:R:3:forces:R:3 energy=-3.482083628123342 pbc="F F F"
Pb       0.00000000       0.00000000       0.00000000       0.00000000       0.00000000       0.85157764
Pb       0.00000000       0.00000000       3.64848485       0.00000000       0.00000000      -0.85157764
2
Properties=species:S:1:pos:R:3:forces:R:3 energy=-3.43299315658107 pbc="F F F"
Pb       0.00000000       0.00000000       0.00000000       0.00000000       0.00000000       0.81827217
Pb       0.00000000       0.00000000       3.70727273       0.00000000       0.00000000      -0.81827217
2
Properties=species:S:1:pos:R:3:forces:R:3 energy=-3.3859099542309923 pbc="F F F"
Pb       0.00000000       0.00000000       0.00000000       0.00000000       0.00000000       0.78323597
Pb       0.00000000       0.00000000       3.76606061       0.00000000       0.00000000      -0.78323597
2
Properties=species:S:1:pos:R:3:forces:R:3 energy=-3.340923288085529 pbc="F F F"
Pb       0.00000000       0.00000000       0.00000000       0.00000000       0.00000000       0.74716473
Pb       0.00000000       0.00000000       3.82484848       0.00000000       0.00000000      -0.74716473
2
Properties=species:S:1:pos:R:3:forces:R:3 energy=-3.298056486691713 pbc="F F F"
Pb       0.00000000       0.00000000       0.00000000       0.00000000       0.00000000       0.71141958
Pb       0.00000000       0.00000000       3.88363636       0.00000000       0.00000000      -0.71141958
2
Properties=species:S:1:pos:R:3:forces:R:3 energy=-3.257250149620199 pbc="F F F"
Pb       0.00000000       0.00000000       0.00000000       0.00000000       0.00000000       0.67707938
Pb       0.00000000       0.00000000       3.94242424       0.00000000       0.00000000      -0.67707938
2
Properties=species:S:1:pos:R:3:forces:R:3 energy=-3.2184128312685014 pbc="F F F"
Pb       0.00000000       0.00000000       0.00000000       0.00000000       0.00000000       0.64448917
Pb       0.00000000       0.00000000       4.00121212       0.00000000       0.00000000      -0.64448917
2
Properties=species:S:1:pos:R:3:forces:R:3 energy=-3.181444172647199 pbc="F F F"
Pb       0.00000000       0.00000000       0.00000000       0.00000000       0.00000000       0.61343533
Pb       0.00000000       0.00000000       4.06000000       0.00000000       0.00000000      -0.61343533
2
Properties=species:S:1:pos:R:3:forces:R:3 energy=-3.1462634352619934 pbc="F F F"
Pb       0.00000000       0.00000000       0.00000000       0.00000000       0.00000000       0.58362174
Pb       0.00000000       0.00000000       4.11878788       0.00000000       0.00000000      -0.58362174
2
Properties=species:S:1:pos:R:3:forces:R:3 energy=-3.1127995950794896 pbc="F F F"
Pb       0.00000000       0.00000000       0.00000000       0.00000000       0.00000000       0.55500746
Pb       0.00000000       0.00000000       4.17757576       0.00000000       0.00000000      -0.55500746
2
Properties=species:S:1:pos:R:3:forces:R:3 energy=-3.0809778135288775 pbc="F F F"
Pb       0.00000000       0.00000000       0.00000000       0.00000000       0.00000000       0.52786386
Pb       0.00000000       0.00000000       4.23636364       0.00000000       0.00000000      -0.52786386
2
Properties=species:S:1:pos:R:3:forces:R:3 energy=-3.0506988874907814 pbc="F F F"
Pb       0.00000000       0.00000000       0.00000000       0.00000000       0.00000000       0.50265020
Pb       0.00000000       0.00000000       4.29515152       0.00000000       0.00000000      -0.50265020
2
Properties=species:S:1:pos:R:3:forces:R:3 energy=-3.0218329600513503 pbc="F F F"
Pb       0.00000000       0.00000000       0.00000000       0.00000000       0.00000000       0.47982001
Pb       0.00000000       0.00000000       4.35393939       0.00000000       0.00000000      -0.47982001
2
Properties=species:S:1:pos:R:3:forces:R:3 energy=-2.9942324426228577 pbc="F F F"
Pb       0.00000000       0.00000000       0.00000000       0.00000000       0.00000000       0.45964032
Pb       0.00000000       0.00000000       4.41272727       0.00000000       0.00000000      -0.45964032
2
Properties=species:S:1:pos:R:3:forces:R:3 energy=-2.9677403872724537 pbc="F F F"
Pb       0.00000000       0.00000000       0.00000000       0.00000000       0.00000000       0.44205084
Pb       0.00000000       0.00000000       4.47151515       0.00000000       0.00000000      -0.44205084
2
Properties=species:S:1:pos:R:3:forces:R:3 energy=-2.942215291757858 pbc="F F F"
Pb       0.00000000       0.00000000       0.00000000       0.00000000       0.00000000       0.42661735
Pb       0.00000000       0.00000000       4.53030303       0.00000000       0.00000000      -0.42661735
2
Properties=species:S:1:pos:R:3:forces:R:3 energy=-2.917551110848893 pbc="F F F"
Pb       0.00000000       0.00000000       0.00000000       0.00000000       0.00000000       0.41260055
Pb       0.00000000       0.00000000       4.58909091       0.00000000       0.00000000      -0.41260055
2
Properties=species:S:1:pos:R:3:forces:R:3 energy=-2.8936917198333383 pbc="F F F"
Pb       0.00000000       0.00000000       0.00000000       0.00000000       0.00000000       0.39916864
Pb       0.00000000       0.00000000       4.64787879       0.00000000       0.00000000      -0.39916864
2
Properties=species:S:1:pos:R:3:forces:R:3 energy=-2.870621181368792 pbc="F F F"
Pb       0.00000000       0.00000000       0.00000000       0.00000000       0.00000000       0.38564593
Pb       0.00000000       0.00000000       4.70666667       0.00000000       0.00000000      -0.38564593
2
Properties=species:S:1:pos:R:3:forces:R:3 energy=-2.8483572028109867 pbc="F F F"
Pb       0.00000000       0.00000000       0.00000000       0.00000000       0.00000000       0.37173814
Pb       0.00000000       0.00000000       4.76545455       0.00000000       0.00000000      -0.37173814
2
Properties=species:S:1:pos:R:3:forces:R:3 energy=-2.8269171889087157 pbc="F F F"
Pb       0.00000000       0.00000000       0.00000000       0.00000000       0.00000000       0.35761428
Pb       0.00000000       0.00000000       4.82424242       0.00000000       0.00000000      -0.35761428
2
Properties=species:S:1:pos:R:3:forces:R:3 energy=-2.806304391351489 pbc="F F F"
Pb       0.00000000       0.00000000       0.00000000       0.00000000       0.00000000       0.34379306
Pb       0.00000000       0.00000000       4.88303030       0.00000000       0.00000000      -0.34379306
2
Properties=species:S:1:pos:R:3:forces:R:3 energy=-2.786477760322614 pbc="F F F"
Pb       0.00000000       0.00000000       0.00000000       0.00000000       0.00000000       0.33090913
Pb       0.00000000       0.00000000       4.94181818       0.00000000       0.00000000      -0.33090913
2
Properties=species:S:1:pos:R:3:forces:R:3 energy=-2.7673700896537827 pbc="F F F"
Pb       0.00000000       0.00000000       0.00000000       0.00000000       0.00000000       0.31937522
Pb       0.00000000       0.00000000       5.00060606       0.00000000       0.00000000      -0.31937522
2
Properties=species:S:1:pos:R:3:forces:R:3 energy=-2.748902242744268 pbc="F F F"
Pb       0.00000000       0.00000000       0.00000000       0.00000000       0.00000000       0.30910727
Pb       0.00000000       0.00000000       5.05939394       0.00000000       0.00000000      -0.30910727
2
Properties=species:S:1:pos:R:3:forces:R:3 energy=-2.731014512939586 pbc="F F F"
Pb       0.00000000       0.00000000       0.00000000       0.00000000       0.00000000       0.29942313
Pb       0.00000000       0.00000000       5.11818182       0.00000000       0.00000000      -0.29942313
2
Properties=species:S:1:pos:R:3:forces:R:3 energy=-2.713710538483473 pbc="F F F"
Pb       0.00000000       0.00000000       0.00000000       0.00000000       0.00000000       0.28907797
Pb       0.00000000       0.00000000       5.17696970       0.00000000       0.00000000      -0.28907797
2
Properties=species:S:1:pos:R:3:forces:R:3 energy=-2.697070051992184 pbc="F F F"
Pb       0.00000000       0.00000000       0.00000000       0.00000000       0.00000000       0.27656537
Pb       0.00000000       0.00000000       5.23575758       0.00000000       0.00000000      -0.27656537
2
Properties=species:S:1:pos:R:3:forces:R:3 energy=-2.6812655602515605 pbc="F F F"
Pb       0.00000000       0.00000000       0.00000000       0.00000000       0.00000000       0.26042730
Pb       0.00000000       0.00000000       5.29454545       0.00000000       0.00000000      -0.26042730
2
Properties=species:S:1:pos:R:3:forces:R:3 energy=-2.6665389696928137 pbc="F F F"
Pb       0.00000000       0.00000000       0.00000000       0.00000000       0.00000000       0.23969448
Pb       0.00000000       0.00000000       5.35333333       0.00000000       0.00000000      -0.23969448
2
Properties=species:S:1:pos:R:3:forces:R:3 energy=-2.6531762142367423 pbc="F F F"
Pb       0.00000000       0.00000000       0.00000000       0.00000000       0.00000000       0.21414191
Pb       0.00000000       0.00000000       5.41212121       0.00000000       0.00000000      -0.21414191
2
Properties=species:S:1:pos:R:3:forces:R:3 energy=-2.641443427222709 pbc="F F F"
Pb       0.00000000       0.00000000       0.00000000       0.00000000       0.00000000       0.18445182
Pb       0.00000000       0.00000000       5.47090909       0.00000000       0.00000000      -0.18445182
2
Properties=species:S:1:pos:R:3:forces:R:3 energy=-2.631541556347412 pbc="F F F"
Pb       0.00000000       0.00000000       0.00000000       0.00000000       0.00000000       0.15212290
Pb       0.00000000       0.00000000       5.52969697       0.00000000       0.00000000      -0.15212290
2
Properties=species:S:1:pos:R:3:forces:R:3 energy=-2.6235677651976506 pbc="F F F"
Pb       0.00000000       0.00000000       0.00000000       0.00000000       0.00000000       0.11927754
Pb       0.00000000       0.00000000       5.58848485       0.00000000       0.00000000      -0.11927754
2
Properties=species:S:1:pos:R:3:forces:R:3 energy=-2.61748114215662 pbc="F F F"
Pb       0.00000000       0.00000000       0.00000000       0.00000000       0.00000000       0.08826318
Pb       0.00000000       0.00000000       5.64727273       0.00000000       0.00000000      -0.08826318
2
Properties=species:S:1:pos:R:3:forces:R:3 energy=-2.6131107369435136 pbc="F F F"
Pb       0.00000000       0.00000000       0.00000000       0.00000000       0.00000000       0.06128584
Pb       0.00000000       0.00000000       5.70606061       0.00000000       0.00000000      -0.06128584
2
Properties=species:S:1:pos:R:3:forces:R:3 energy=-2.610162771775608 pbc="F F F"
Pb       0.00000000       0.00000000       0.00000000       0.00000000       0.00000000       0.03995052
Pb       0.00000000       0.00000000       5.76484848       0.00000000       0.00000000      -0.03995052
2
Properties=species:S:1:pos:R:3:forces:R:3 energy=-2.6082850571502174 pbc="F F F"
Pb       0.00000000       0.00000000       0.00000000       0.00000000       0.00000000       0.02506655
Pb       0.00000000       0.00000000       5.82363636       0.00000000       0.00000000      -0.02506655
2
Properties=species:S:1:pos:R:3:forces:R:3 energy=-2.6070960393135665 pbc="F F F"
Pb       0.00000000       0.00000000       0.00000000       0.00000000       0.00000000       0.01637480
Pb       0.00000000       0.00000000       5.88242424       0.00000000       0.00000000      -0.01637480
2
Properties=species:S:1:pos:R:3:forces:R:3 energy=-2.60626208906211 pbc="F F F"
Pb       0.00000000       0.00000000       0.00000000       0.00000000       0.00000000       0.01260264
Pb       0.00000000       0.00000000       5.94121212       0.00000000       0.00000000      -0.01260264
2
Properties=species:S:1:pos:R:3:forces:R:3 energy=-2.6055581186663326 pbc="F F F"
Pb       0.00000000       0.00000000       0.00000000       0.00000000       0.00000000       0.01160836
Pb       0.00000000       0.00000000       6.00000000       0.00000000       0.00000000      -0.01160836
