2
Properties=species:S:1:pos:R:3:forces:R:3 energy=383485.2628125005 pbc="F F F"
Pd       0.00000000       0.00000000       0.00000000       0.00000000       0.00000000 -4063207.50000000
Pd       0.00000000       0.00000000       0.18000000       0.00000000       0.00000000 4063207.50000000
2
Properties=species:S:1:pos:R:3:forces:R:3 energy=182964.63781250053 pbc="F F F"
Pd       0.00000000       0.00000000       0.00000000       0.00000000       0.00000000 -2689035.25000000
Pd       0.00000000       0.00000000       0.23878788       0.00000000       0.00000000 2689035.25000000
2
Properties=species:S:1:pos:R:3:forces:R:3 energy=66670.93468750053 pbc="F F F"
Pd       0.00000000       0.00000000       0.00000000       0.00000000       0.00000000 -1329366.62500000
Pd       0.00000000       0.00000000       0.29757576       0.00000000       0.00000000 1329366.62500000
2
Properties=species:S:1:pos:R:3:forces:R:3 energy=16035.61828125687 pbc="F F F"
Pd       0.00000000       0.00000000       0.00000000       0.00000000       0.00000000 -499550.03125000
Pd       0.00000000       0.00000000       0.35636364       0.00000000       0.00000000  499550.03125000
2
Properties=species:S:1:pos:R:3:forces:R:3 energy=1951.1701611491847 pbc="F F F"
Pd       0.00000000       0.00000000       0.00000000       0.00000000       0.00000000 -101853.83593750
Pd       0.00000000       0.00000000       0.41515152       0.00000000       0.00000000  101853.83593750
2
Properties=species:S:1:pos:R:3:forces:R:3 energy=-859.6162768200896 pbc="F F F"
Pd       0.00000000       0.00000000       0.00000000       0.00000000       0.00000000   -4166.44433594
Pd       0.00000000       0.00000000       0.47393939       0.00000000       0.00000000    4166.44433594
2
Properties=species:S:1:pos:R:3:forces:R:3 energy=-226.71753410946232 pbc="F F F"
Pd       0.00000000       0.00000000       0.00000000       0.00000000       0.00000000   10204.44726562
Pd       0.00000000       0.00000000       0.53272727       0.00000000       0.00000000  -10204.44726562
2
Properties=species:S:1:pos:R:3:forces:R:3 energy=130.86768628764037 pbc="F F F"
Pd       0.00000000       0.00000000       0.00000000       0.00000000       0.00000000    -774.07550049
Pd       0.00000000       0.00000000       0.59151515       0.00000000       0.00000000     774.07550049
2
Properties=species:S:1:pos:R:3:forces:R:3 energy=107.27080833408505 pbc="F F F"
Pd       0.00000000       0.00000000       0.00000000       0.00000000       0.00000000    -326.90347290
Pd       0.00000000       0.00000000       0.65030303       0.00000000       0.00000000     326.90347290
2
Properties=species:S:1:pos:R:3:forces:R:3 energy=90.73621681133582 pbc="F F F"
Pd       0.00000000       0.00000000       0.00000000       0.00000000       0.00000000    -281.37011719
Pd       0.00000000       0.00000000       0.70909091       0.00000000       0.00000000     281.37011719
2
Properties=species:S:1:pos:R:3:forces:R:3 energy=72.86474182919592 pbc="F F F"
Pd       0.00000000       0.00000000       0.00000000       0.00000000       0.00000000    -218.31690979
Pd       0.00000000       0.00000000       0.76787879       0.00000000       0.00000000     218.31690979
2
Properties=species:S:1:pos:R:3:forces:R:3 energy=64.7686880973401 pbc="F F F"
Pd       0.00000000       0.00000000       0.00000000       0.00000000       0.00000000    -124.92803955
Pd       0.00000000       0.00000000       0.82666667       0.00000000       0.00000000     124.92803955
2
Properties=species:S:1:pos:R:3:forces:R:3 energy=62.696895992149116 pbc="F F F"
Pd       0.00000000       0.00000000       0.00000000       0.00000000       0.00000000     103.11109161
Pd       0.00000000       0.00000000       0.88545455       0.00000000       0.00000000    -103.11109161
2
Properties=species:S:1:pos:R:3:forces:R:3 energy=62.25379671665187 pbc="F F F"
Pd       0.00000000       0.00000000       0.00000000       0.00000000       0.00000000    -107.59378052
Pd       0.00000000       0.00000000       0.94424242       0.00000000       0.00000000     107.59378052
2
Properties=species:S:1:pos:R:3:forces:R:3 energy=53.391203072009795 pbc="F F F"
Pd       0.00000000       0.00000000       0.00000000       0.00000000       0.00000000    -186.17388916
Pd       0.00000000       0.00000000       1.00303030       0.00000000       0.00000000     186.17388916
2
Properties=species:S:1:pos:R:3:forces:R:3 energy=42.62818862057874 pbc="F F F"
Pd       0.00000000       0.00000000       0.00000000       0.00000000       0.00000000    -181.95176697
Pd       0.00000000       0.00000000       1.06181818       0.00000000       0.00000000     181.95176697
2
Properties=species:S:1:pos:R:3:forces:R:3 energy=33.04215365857726 pbc="F F F"
Pd       0.00000000       0.00000000       0.00000000       0.00000000       0.00000000    -153.01640320
Pd       0.00000000       0.00000000       1.12060606       0.00000000       0.00000000     153.01640320
2
Properties=species:S:1:pos:R:3:forces:R:3 energy=24.41995017664588 pbc="F F F"
Pd       0.00000000       0.00000000       0.00000000       0.00000000       0.00000000    -147.11141968
Pd       0.00000000       0.00000000       1.17939394       0.00000000       0.00000000     147.11141968
2
Properties=species:S:1:pos:R:3:forces:R:3 energy=17.315699322121358 pbc="F F F"
Pd       0.00000000       0.00000000       0.00000000       0.00000000       0.00000000    -105.52395630
Pd       0.00000000       0.00000000       1.23818182       0.00000000       0.00000000     105.52395630
2
Properties=species:S:1:pos:R:3:forces:R:3 energy=12.037491453852274 pbc="F F F"
Pd       0.00000000       0.00000000       0.00000000       0.00000000       0.00000000     -76.83094788
Pd       0.00000000       0.00000000       1.29696970       0.00000000       0.00000000      76.83094788
2
Properties=species:S:1:pos:R:3:forces:R:3 energy=8.101640302093113 pbc="F F F"
Pd       0.00000000       0.00000000       0.00000000       0.00000000       0.00000000     -58.09458160
Pd       0.00000000       0.00000000       1.35575758       0.00000000       0.00000000      58.09458160
2
Properties=species:S:1:pos:R:3:forces:R:3 energy=5.200226560990551 pbc="F F F"
Pd       0.00000000       0.00000000       0.00000000       0.00000000       0.00000000     -40.86397552
Pd       0.00000000       0.00000000       1.41454545       0.00000000       0.00000000      40.86397552
2
Properties=species:S:1:pos:R:3:forces:R:3 energy=3.1817717007362263 pbc="F F F"
Pd       0.00000000       0.00000000       0.00000000       0.00000000       0.00000000     -28.16891670
Pd       0.00000000       0.00000000       1.47333333       0.00000000       0.00000000      28.16891670
2
Properties=species:S:1:pos:R:3:forces:R:3 energy=1.7745655694394569 pbc="F F F"
Pd       0.00000000       0.00000000       0.00000000       0.00000000       0.00000000     -20.49145889
Pd       0.00000000       0.00000000       1.53212121       0.00000000       0.00000000      20.49145889
2
Properties=species:S:1:pos:R:3:forces:R:3 energy=0.7685883013654209 pbc="F F F"
Pd       0.00000000       0.00000000       0.00000000       0.00000000       0.00000000     -14.19716358
Pd       0.00000000       0.00000000       1.59090909       0.00000000       0.00000000      14.19716358
2
Properties=species:S:1:pos:R:3:forces:R:3 energy=0.0206964612242177 pbc="F F F"
Pd       0.00000000       0.00000000       0.00000000       0.00000000       0.00000000     -11.52516174
Pd       0.00000000       0.00000000       1.64969697       0.00000000       0.00000000      11.52516174
2
Properties=species:S:1:pos:R:3:forces:R:3 energy=-0.5970949896083702 pbc="F F F"
Pd       0.00000000       0.00000000       0.00000000       0.00000000       0.00000000      -9.42821217
Pd       0.00000000       0.00000000       1.70848485       0.00000000       0.00000000       9.42821217
2
Properties=species:S:1:pos:R:3:forces:R:3 energy=-1.106156482562451 pbc="F F F"
Pd       0.00000000       0.00000000       0.00000000       0.00000000       0.00000000      -8.33997059
Pd       0.00000000       0.00000000       1.76727273       0.00000000       0.00000000       8.33997059
2
Properties=species:S:1:pos:R:3:forces:R:3 energy=-1.617429308669617 pbc="F F F"
Pd       0.00000000       0.00000000       0.00000000       0.00000000       0.00000000      -9.05474949
Pd       0.00000000       0.00000000       1.82606061       0.00000000       0.00000000       9.05474949
2
Properties=species:S:1:pos:R:3:forces:R:3 energy=-2.1534303247785362 pbc="F F F"
Pd       0.00000000       0.00000000       0.00000000       0.00000000       0.00000000      -9.12192822
Pd       0.00000000       0.00000000       1.88484848       0.00000000       0.00000000       9.12192822
2
Properties=species:S:1:pos:R:3:forces:R:3 energy=-2.6812622539534905 pbc="F F F"
Pd       0.00000000       0.00000000       0.00000000       0.00000000       0.00000000      -8.70998383
Pd       0.00000000       0.00000000       1.94363636       0.00000000       0.00000000       8.70998383
2
Properties=species:S:1:pos:R:3:forces:R:3 energy=-3.1708736459761124 pbc="F F F"
Pd       0.00000000       0.00000000       0.00000000       0.00000000       0.00000000      -7.92770720
Pd       0.00000000       0.00000000       2.00242424       0.00000000       0.00000000       7.92770720
2
Properties=species:S:1:pos:R:3:forces:R:3 energy=-3.608567084182959 pbc="F F F"
Pd       0.00000000       0.00000000       0.00000000       0.00000000       0.00000000      -6.91477108
Pd       0.00000000       0.00000000       2.06121212       0.00000000       0.00000000       6.91477108
2
Properties=species:S:1:pos:R:3:forces:R:3 energy=-3.978751930420419 pbc="F F F"
Pd       0.00000000       0.00000000       0.00000000       0.00000000       0.00000000      -5.63052464
Pd       0.00000000       0.00000000       2.12000000       0.00000000       0.00000000       5.63052464
2
Properties=species:S:1:pos:R:3:forces:R:3 energy=-4.269645694604151 pbc="F F F"
Pd       0.00000000       0.00000000       0.00000000       0.00000000       0.00000000      -4.30860949
Pd       0.00000000       0.00000000       2.17878788       0.00000000       0.00000000       4.30860949
2
Properties=species:S:1:pos:R:3:forces:R:3 energy=-4.4883486881965755 pbc="F F F"
Pd       0.00000000       0.00000000       0.00000000       0.00000000       0.00000000      -3.13040161
Pd       0.00000000       0.00000000       2.23757576       0.00000000       0.00000000       3.13040161
2
Properties=species:S:1:pos:R:3:forces:R:3 energy=-4.639414968623694 pbc="F F F"
Pd       0.00000000       0.00000000       0.00000000       0.00000000       0.00000000      -2.03576040
Pd       0.00000000       0.00000000       2.29636364       0.00000000       0.00000000       2.03576040
2
Properties=species:S:1:pos:R:3:forces:R:3 energy=-4.730264347366327 pbc="F F F"
Pd       0.00000000       0.00000000       0.00000000       0.00000000       0.00000000      -1.07580674
Pd       0.00000000       0.00000000       2.35515152       0.00000000       0.00000000       1.07580674
2
Properties=species:S:1:pos:R:3:forces:R:3 energy=-4.7691554396490075 pbc="F F F"
Pd       0.00000000       0.00000000       0.00000000       0.00000000       0.00000000      -0.28141528
Pd       0.00000000       0.00000000       2.41393939       0.00000000       0.00000000       0.28141528
2
Properties=species:S:1:pos:R:3:forces:R:3 energy=-4.768287203161069 pbc="F F F"
Pd       0.00000000       0.00000000       0.00000000       0.00000000       0.00000000       0.26519433
Pd       0.00000000       0.00000000       2.47272727       0.00000000       0.00000000      -0.26519433
2
Properties=species:S:1:pos:R:3:forces:R:3 energy=-4.741773796181196 pbc="F F F"
Pd       0.00000000       0.00000000       0.00000000       0.00000000       0.00000000       0.62125564
Pd       0.00000000       0.00000000       2.53151515       0.00000000       0.00000000      -0.62125564
2
Properties=species:S:1:pos:R:3:forces:R:3 energy=-4.696726924744233 pbc="F F F"
Pd       0.00000000       0.00000000       0.00000000       0.00000000       0.00000000       0.89469135
Pd       0.00000000       0.00000000       2.59030303       0.00000000       0.00000000      -0.89469135
2
Properties=species:S:1:pos:R:3:forces:R:3 energy=-4.638717243716558 pbc="F F F"
Pd       0.00000000       0.00000000       0.00000000       0.00000000       0.00000000       1.06246090
Pd       0.00000000       0.00000000       2.64909091       0.00000000       0.00000000      -1.06246090
2
Properties=species:S:1:pos:R:3:forces:R:3 energy=-4.573361182936234 pbc="F F F"
Pd       0.00000000       0.00000000       0.00000000       0.00000000       0.00000000       1.15011585
Pd       0.00000000       0.00000000       2.70787879       0.00000000       0.00000000      -1.15011585
2
Properties=species:S:1:pos:R:3:forces:R:3 energy=-4.50457120537407 pbc="F F F"
Pd       0.00000000       0.00000000       0.00000000       0.00000000       0.00000000       1.18281841
Pd       0.00000000       0.00000000       2.76666667       0.00000000       0.00000000      -1.18281841
2
Properties=species:S:1:pos:R:3:forces:R:3 energy=-4.4349318635435715 pbc="F F F"
Pd       0.00000000       0.00000000       0.00000000       0.00000000       0.00000000       1.18232870
Pd       0.00000000       0.00000000       2.82545455       0.00000000       0.00000000      -1.18232870
2
Properties=species:S:1:pos:R:3:forces:R:3 energy=-4.365998512685015 pbc="F F F"
Pd       0.00000000       0.00000000       0.00000000       0.00000000       0.00000000       1.15886855
Pd       0.00000000       0.00000000       2.88424242       0.00000000       0.00000000      -1.15886855
2
Properties=species:S:1:pos:R:3:forces:R:3 energy=-4.2991572831989595 pbc="F F F"
Pd       0.00000000       0.00000000       0.00000000       0.00000000       0.00000000       1.11143863
Pd       0.00000000       0.00000000       2.94303030       0.00000000       0.00000000      -1.11143863
2
Properties=species:S:1:pos:R:3:forces:R:3 energy=-4.235607346508066 pbc="F F F"
Pd       0.00000000       0.00000000       0.00000000       0.00000000       0.00000000       1.04957342
Pd       0.00000000       0.00000000       3.00181818       0.00000000       0.00000000      -1.04957342
2
Properties=species:S:1:pos:R:3:forces:R:3 energy=-4.1757331228962755 pbc="F F F"
Pd       0.00000000       0.00000000       0.00000000       0.00000000       0.00000000       0.98828965
Pd       0.00000000       0.00000000       3.06060606       0.00000000       0.00000000      -0.98828965
2
Properties=species:S:1:pos:R:3:forces:R:3 energy=-4.119293389142937 pbc="F F F"
Pd       0.00000000       0.00000000       0.00000000       0.00000000       0.00000000       0.93273652
Pd       0.00000000       0.00000000       3.11939394       0.00000000       0.00000000      -0.93273652
2
Properties=species:S:1:pos:R:3:forces:R:3 energy=-4.065967295852887 pbc="F F F"
Pd       0.00000000       0.00000000       0.00000000       0.00000000       0.00000000       0.88228840
Pd       0.00000000       0.00000000       3.17818182       0.00000000       0.00000000      -0.88228840
2
Properties=species:S:1:pos:R:3:forces:R:3 energy=-4.015458456701712 pbc="F F F"
Pd       0.00000000       0.00000000       0.00000000       0.00000000       0.00000000       0.83675784
Pd       0.00000000       0.00000000       3.23696970       0.00000000       0.00000000      -0.83675784
2
Properties=species:S:1:pos:R:3:forces:R:3 energy=-3.9675160336489914 pbc="F F F"
Pd       0.00000000       0.00000000       0.00000000       0.00000000       0.00000000       0.79467261
Pd       0.00000000       0.00000000       3.29575758       0.00000000       0.00000000      -0.79467261
2
Properties=species:S:1:pos:R:3:forces:R:3 energy=-3.9220057840110347 pbc="F F F"
Pd       0.00000000       0.00000000       0.00000000       0.00000000       0.00000000       0.75355250
Pd       0.00000000       0.00000000       3.35454545       0.00000000       0.00000000      -0.75355250
2
Properties=species:S:1:pos:R:3:forces:R:3 energy=-3.8789368520407588 pbc="F F F"
Pd       0.00000000       0.00000000       0.00000000       0.00000000       0.00000000       0.71144021
Pd       0.00000000       0.00000000       3.41333333       0.00000000       0.00000000      -0.71144021
2
Properties=species:S:1:pos:R:3:forces:R:3 energy=-3.83839092926738 pbc="F F F"
Pd       0.00000000       0.00000000       0.00000000       0.00000000       0.00000000       0.66768217
Pd       0.00000000       0.00000000       3.47212121       0.00000000       0.00000000      -0.66768217
2
Properties=species:S:1:pos:R:3:forces:R:3 energy=-3.8004555099655515 pbc="F F F"
Pd       0.00000000       0.00000000       0.00000000       0.00000000       0.00000000       0.62282956
Pd       0.00000000       0.00000000       3.53090909       0.00000000       0.00000000      -0.62282956
2
Properties=species:S:1:pos:R:3:forces:R:3 energy=-3.7651673629454456 pbc="F F F"
Pd       0.00000000       0.00000000       0.00000000       0.00000000       0.00000000       0.57765800
Pd       0.00000000       0.00000000       3.58969697       0.00000000       0.00000000      -0.57765800
2
Properties=species:S:1:pos:R:3:forces:R:3 energy=-3.7325353437086144 pbc="F F F"
Pd       0.00000000       0.00000000       0.00000000       0.00000000       0.00000000       0.53251344
Pd       0.00000000       0.00000000       3.64848485       0.00000000       0.00000000      -0.53251344
2
Properties=species:S:1:pos:R:3:forces:R:3 energy=-3.702554457144418 pbc="F F F"
Pd       0.00000000       0.00000000       0.00000000       0.00000000       0.00000000       0.48756164
Pd       0.00000000       0.00000000       3.70727273       0.00000000       0.00000000      -0.48756164
2
Properties=species:S:1:pos:R:3:forces:R:3 energy=-3.6751977576339776 pbc="F F F"
Pd       0.00000000       0.00000000       0.00000000       0.00000000       0.00000000       0.44323409
Pd       0.00000000       0.00000000       3.76606061       0.00000000       0.00000000      -0.44323409
2
Properties=species:S:1:pos:R:3:forces:R:3 energy=-3.6504139268505202 pbc="F F F"
Pd       0.00000000       0.00000000       0.00000000       0.00000000       0.00000000       0.40029293
Pd       0.00000000       0.00000000       3.82484848       0.00000000       0.00000000      -0.40029293
2
Properties=species:S:1:pos:R:3:forces:R:3 energy=-3.628090207173924 pbc="F F F"
Pd       0.00000000       0.00000000       0.00000000       0.00000000       0.00000000       0.35955760
Pd       0.00000000       0.00000000       3.88363636       0.00000000       0.00000000      -0.35955760
2
Properties=species:S:1:pos:R:3:forces:R:3 energy=-3.608081921245017 pbc="F F F"
Pd       0.00000000       0.00000000       0.00000000       0.00000000       0.00000000       0.32163692
Pd       0.00000000       0.00000000       3.94242424       0.00000000       0.00000000      -0.32163692
2
Properties=species:S:1:pos:R:3:forces:R:3 energy=-3.590210456910991 pbc="F F F"
Pd       0.00000000       0.00000000       0.00000000       0.00000000       0.00000000       0.28683800
Pd       0.00000000       0.00000000       4.00121212       0.00000000       0.00000000      -0.28683800
2
Properties=species:S:1:pos:R:3:forces:R:3 energy=-3.574295310349667 pbc="F F F"
Pd       0.00000000       0.00000000       0.00000000       0.00000000       0.00000000       0.25525403
Pd       0.00000000       0.00000000       4.06000000       0.00000000       0.00000000      -0.25525403
2
Properties=species:S:1:pos:R:3:forces:R:3 energy=-3.560138491491282 pbc="F F F"
Pd       0.00000000       0.00000000       0.00000000       0.00000000       0.00000000       0.22689222
Pd       0.00000000       0.00000000       4.11878788       0.00000000       0.00000000      -0.22689222
2
Properties=species:S:1:pos:R:3:forces:R:3 energy=-3.5475541829569655 pbc="F F F"
Pd       0.00000000       0.00000000       0.00000000       0.00000000       0.00000000       0.20171735
Pd       0.00000000       0.00000000       4.17757576       0.00000000       0.00000000      -0.20171735
2
Properties=species:S:1:pos:R:3:forces:R:3 energy=-3.536359376041805 pbc="F F F"
Pd       0.00000000       0.00000000       0.00000000       0.00000000       0.00000000       0.17962778
Pd       0.00000000       0.00000000       4.23636364       0.00000000       0.00000000      -0.17962778
2
Properties=species:S:1:pos:R:3:forces:R:3 energy=-3.526378525044832 pbc="F F F"
Pd       0.00000000       0.00000000       0.00000000       0.00000000       0.00000000       0.16041955
Pd       0.00000000       0.00000000       4.29515152       0.00000000       0.00000000      -0.16041955
2
Properties=species:S:1:pos:R:3:forces:R:3 energy=-3.5174477501044246 pbc="F F F"
Pd       0.00000000       0.00000000       0.00000000       0.00000000       0.00000000       0.14379343
Pd       0.00000000       0.00000000       4.35393939       0.00000000       0.00000000      -0.14379343
2
Properties=species:S:1:pos:R:3:forces:R:3 energy=-3.5094268738326972 pbc="F F F"
Pd       0.00000000       0.00000000       0.00000000       0.00000000       0.00000000       0.12939307
Pd       0.00000000       0.00000000       4.41272727       0.00000000       0.00000000      -0.12939307
2
Properties=species:S:1:pos:R:3:forces:R:3 energy=-3.5021988842897205 pbc="F F F"
Pd       0.00000000       0.00000000       0.00000000       0.00000000       0.00000000       0.11685683
Pd       0.00000000       0.00000000       4.47151515       0.00000000       0.00000000      -0.11685683
2
Properties=species:S:1:pos:R:3:forces:R:3 energy=-3.4956583515075508 pbc="F F F"
Pd       0.00000000       0.00000000       0.00000000       0.00000000       0.00000000       0.10585399
Pd       0.00000000       0.00000000       4.53030303       0.00000000       0.00000000      -0.10585399
2
Properties=species:S:1:pos:R:3:forces:R:3 energy=-3.4897269350332554 pbc="F F F"
Pd       0.00000000       0.00000000       0.00000000       0.00000000       0.00000000       0.09610644
Pd       0.00000000       0.00000000       4.58909091       0.00000000       0.00000000      -0.09610644
2
Properties=species:S:1:pos:R:3:forces:R:3 energy=-3.484339005954257 pbc="F F F"
Pd       0.00000000       0.00000000       0.00000000       0.00000000       0.00000000       0.08739612
Pd       0.00000000       0.00000000       4.64787879       0.00000000       0.00000000      -0.08739612
2
Properties=species:S:1:pos:R:3:forces:R:3 energy=-3.479434434152341 pbc="F F F"
Pd       0.00000000       0.00000000       0.00000000       0.00000000       0.00000000       0.07956459
Pd       0.00000000       0.00000000       4.70666667       0.00000000       0.00000000      -0.07956459
2
Properties=species:S:1:pos:R:3:forces:R:3 energy=-3.4749679951661103 pbc="F F F"
Pd       0.00000000       0.00000000       0.00000000       0.00000000       0.00000000       0.07250942
Pd       0.00000000       0.00000000       4.76545455       0.00000000       0.00000000      -0.07250942
2
Properties=species:S:1:pos:R:3:forces:R:3 energy=-3.470895077747529 pbc="F F F"
Pd       0.00000000       0.00000000       0.00000000       0.00000000       0.00000000       0.06617207
Pd       0.00000000       0.00000000       4.82424242       0.00000000       0.00000000      -0.06617207
2
Properties=species:S:1:pos:R:3:forces:R:3 energy=-3.467173578539264 pbc="F F F"
Pd       0.00000000       0.00000000       0.00000000       0.00000000       0.00000000       0.06052684
Pd       0.00000000       0.00000000       4.88303030       0.00000000       0.00000000      -0.06052684
2
Properties=species:S:1:pos:R:3:forces:R:3 energy=-3.463765765073812 pbc="F F F"
Pd       0.00000000       0.00000000       0.00000000       0.00000000       0.00000000       0.05555936
Pd       0.00000000       0.00000000       4.94181818       0.00000000       0.00000000      -0.05555936
2
Properties=species:S:1:pos:R:3:forces:R:3 energy=-3.4606288182258846 pbc="F F F"
Pd       0.00000000       0.00000000       0.00000000       0.00000000       0.00000000       0.05124622
Pd       0.00000000       0.00000000       5.00060606       0.00000000       0.00000000      -0.05124622
2
Properties=species:S:1:pos:R:3:forces:R:3 energy=-3.4577282660162174 pbc="F F F"
Pd       0.00000000       0.00000000       0.00000000       0.00000000       0.00000000       0.04753484
Pd       0.00000000       0.00000000       5.05939394       0.00000000       0.00000000      -0.04753484
2
Properties=species:S:1:pos:R:3:forces:R:3 energy=-3.455030332042282 pbc="F F F"
Pd       0.00000000       0.00000000       0.00000000       0.00000000       0.00000000       0.04433132
Pd       0.00000000       0.00000000       5.11818182       0.00000000       0.00000000      -0.04433132
2
Properties=species:S:1:pos:R:3:forces:R:3 energy=-3.452509209996811 pbc="F F F"
Pd       0.00000000       0.00000000       0.00000000       0.00000000       0.00000000       0.04150402
Pd       0.00000000       0.00000000       5.17696970       0.00000000       0.00000000      -0.04150402
2
Properties=species:S:1:pos:R:3:forces:R:3 energy=-3.4501461527590838 pbc="F F F"
Pd       0.00000000       0.00000000       0.00000000       0.00000000       0.00000000       0.03889940
Pd       0.00000000       0.00000000       5.23575758       0.00000000       0.00000000      -0.03889940
2
Properties=species:S:1:pos:R:3:forces:R:3 energy=-3.4479338684674765 pbc="F F F"
Pd       0.00000000       0.00000000       0.00000000       0.00000000       0.00000000       0.03636656
Pd       0.00000000       0.00000000       5.29454545       0.00000000       0.00000000      -0.03636656
2
Properties=species:S:1:pos:R:3:forces:R:3 energy=-3.4458727628429995 pbc="F F F"
Pd       0.00000000       0.00000000       0.00000000       0.00000000       0.00000000       0.03378342
Pd       0.00000000       0.00000000       5.35333333       0.00000000       0.00000000      -0.03378342
2
Properties=species:S:1:pos:R:3:forces:R:3 energy=-3.443962870971471 pbc="F F F"
Pd       0.00000000       0.00000000       0.00000000       0.00000000       0.00000000       0.03107882
Pd       0.00000000       0.00000000       5.41212121       0.00000000       0.00000000      -0.03107882
2
Properties=species:S:1:pos:R:3:forces:R:3 energy=-3.4422192364698225 pbc="F F F"
Pd       0.00000000       0.00000000       0.00000000       0.00000000       0.00000000       0.02824153
Pd       0.00000000       0.00000000       5.47090909       0.00000000       0.00000000      -0.02824153
2
Properties=species:S:1:pos:R:3:forces:R:3 energy=-3.440643310760072 pbc="F F F"
Pd       0.00000000       0.00000000       0.00000000       0.00000000       0.00000000       0.02531844
Pd       0.00000000       0.00000000       5.52969697       0.00000000       0.00000000      -0.02531844
2
Properties=species:S:1:pos:R:3:forces:R:3 energy=-3.4392425730848983 pbc="F F F"
Pd       0.00000000       0.00000000       0.00000000       0.00000000       0.00000000       0.02240245
Pd       0.00000000       0.00000000       5.58848485       0.00000000       0.00000000      -0.02240245
2
Properties=species:S:1:pos:R:3:forces:R:3 energy=-3.4380077294391573 pbc="F F F"
Pd       0.00000000       0.00000000       0.00000000       0.00000000       0.00000000       0.01961804
Pd       0.00000000       0.00000000       5.64727273       0.00000000       0.00000000      -0.01961804
2
Properties=species:S:1:pos:R:3:forces:R:3 energy=-3.4369298422776198 pbc="F F F"
Pd       0.00000000       0.00000000       0.00000000       0.00000000       0.00000000       0.01709401
Pd       0.00000000       0.00000000       5.70606061       0.00000000       0.00000000      -0.01709401
2
Properties=species:S:1:pos:R:3:forces:R:3 energy=-3.435990876135185 pbc="F F F"
Pd       0.00000000       0.00000000       0.00000000       0.00000000       0.00000000       0.01493865
Pd       0.00000000       0.00000000       5.76484848       0.00000000       0.00000000      -0.01493865
2
Properties=species:S:1:pos:R:3:forces:R:3 energy=-3.4351661435852057 pbc="F F F"
Pd       0.00000000       0.00000000       0.00000000       0.00000000       0.00000000       0.01322106
Pd       0.00000000       0.00000000       5.82363636       0.00000000       0.00000000      -0.01322106
2
Properties=species:S:1:pos:R:3:forces:R:3 energy=-3.4344285445048417 pbc="F F F"
Pd       0.00000000       0.00000000       0.00000000       0.00000000       0.00000000       0.01194247
Pd       0.00000000       0.00000000       5.88242424       0.00000000       0.00000000      -0.01194247
2
Properties=species:S:1:pos:R:3:forces:R:3 energy=-3.4337524528402827 pbc="F F F"
Pd       0.00000000       0.00000000       0.00000000       0.00000000       0.00000000       0.01103188
Pd       0.00000000       0.00000000       5.94121212       0.00000000       0.00000000      -0.01103188
2
Properties=species:S:1:pos:R:3:forces:R:3 energy=-3.433124697324631 pbc="F F F"
Pd       0.00000000       0.00000000       0.00000000       0.00000000       0.00000000       0.01034850
Pd       0.00000000       0.00000000       6.00000000       0.00000000       0.00000000      -0.01034850
