2
Properties=species:S:1:pos:R:3:forces:R:3 energy=733236.2628125006 pbc="F F F"
Pd       0.00000000       0.00000000       0.00000000       0.00000000       0.00000000 -4163659.75000000
Pd       0.00000000       0.00000000       0.10000000       0.00000000       0.00000000 4163659.75000000
2
Properties=species:S:1:pos:R:3:forces:R:3 energy=469747.2003125005 pbc="F F F"
Pd       0.00000000       0.00000000       0.00000000       0.00000000       0.00000000 -4368286.50000000
Pd       0.00000000       0.00000000       0.15959596       0.00000000       0.00000000 4368286.50000000
2
Properties=species:S:1:pos:R:3:forces:R:3 energy=240549.68468750053 pbc="F F F"
Pd       0.00000000       0.00000000       0.00000000       0.00000000       0.00000000 -3186869.25000000
Pd       0.00000000       0.00000000       0.21919192       0.00000000       0.00000000 3186869.25000000
2
Properties=species:S:1:pos:R:3:forces:R:3 energy=95233.57531250053 pbc="F F F"
Pd       0.00000000       0.00000000       0.00000000       0.00000000       0.00000000 -1720066.75000000
Pd       0.00000000       0.00000000       0.27878788       0.00000000       0.00000000 1720066.75000000
2
Properties=species:S:1:pos:R:3:forces:R:3 energy=26593.38585938187 pbc="F F F"
Pd       0.00000000       0.00000000       0.00000000       0.00000000       0.00000000 -684633.31250000
Pd       0.00000000       0.00000000       0.33838384       0.00000000       0.00000000  684633.31250000
2
Properties=species:S:1:pos:R:3:forces:R:3 energy=4163.864863294454 pbc="F F F"
Pd       0.00000000       0.00000000       0.00000000       0.00000000       0.00000000 -158698.54687500
Pd       0.00000000       0.00000000       0.39797980       0.00000000       0.00000000  158698.54687500
2
Properties=species:S:1:pos:R:3:forces:R:3 energy=-657.7629443100618 pbc="F F F"
Pd       0.00000000       0.00000000       0.00000000       0.00000000       0.00000000  -22295.35546875
Pd       0.00000000       0.00000000       0.45757576       0.00000000       0.00000000   22295.35546875
2
Properties=species:S:1:pos:R:3:forces:R:3 energy=-402.69208246197735 pbc="F F F"
Pd       0.00000000       0.00000000       0.00000000       0.00000000       0.00000000   12465.88281250
Pd       0.00000000       0.00000000       0.51717172       0.00000000       0.00000000  -12465.88281250
2
Properties=species:S:1:pos:R:3:forces:R:3 energy=98.77092266096142 pbc="F F F"
Pd       0.00000000       0.00000000       0.00000000       0.00000000       0.00000000    3436.01513672
Pd       0.00000000       0.00000000       0.57676768       0.00000000       0.00000000   -3436.01513672
2
Properties=species:S:1:pos:R:3:forces:R:3 energy=111.78792866373496 pbc="F F F"
Pd       0.00000000       0.00000000       0.00000000       0.00000000       0.00000000    -319.42352295
Pd       0.00000000       0.00000000       0.63636364       0.00000000       0.00000000     319.42352295
2
Properties=species:S:1:pos:R:3:forces:R:3 energy=94.2706253426579 pbc="F F F"
Pd       0.00000000       0.00000000       0.00000000       0.00000000       0.00000000    -254.40419006
Pd       0.00000000       0.00000000       0.69595960       0.00000000       0.00000000     254.40419006
2
Properties=species:S:1:pos:R:3:forces:R:3 energy=75.85248896139012 pbc="F F F"
Pd       0.00000000       0.00000000       0.00000000       0.00000000       0.00000000    -270.11569214
Pd       0.00000000       0.00000000       0.75555556       0.00000000       0.00000000     270.11569214
2
Properties=species:S:1:pos:R:3:forces:R:3 energy=66.01507931769909 pbc="F F F"
Pd       0.00000000       0.00000000       0.00000000       0.00000000       0.00000000     -94.75476074
Pd       0.00000000       0.00000000       0.81515152       0.00000000       0.00000000      94.75476074
2
Properties=species:S:1:pos:R:3:forces:R:3 energy=61.345218949860836 pbc="F F F"
Pd       0.00000000       0.00000000       0.00000000       0.00000000       0.00000000     145.74081421
Pd       0.00000000       0.00000000       0.87474747       0.00000000       0.00000000    -145.74081421
2
Properties=species:S:1:pos:R:3:forces:R:3 energy=63.197072035263496 pbc="F F F"
Pd       0.00000000       0.00000000       0.00000000       0.00000000       0.00000000     -81.36337280
Pd       0.00000000       0.00000000       0.93434343       0.00000000       0.00000000      81.36337280
2
Properties=species:S:1:pos:R:3:forces:R:3 energy=55.06101796759179 pbc="F F F"
Pd       0.00000000       0.00000000       0.00000000       0.00000000       0.00000000    -180.04444885
Pd       0.00000000       0.00000000       0.99393939       0.00000000       0.00000000     180.04444885
2
Properties=species:S:1:pos:R:3:forces:R:3 energy=44.14932946374857 pbc="F F F"
Pd       0.00000000       0.00000000       0.00000000       0.00000000       0.00000000    -184.72532654
Pd       0.00000000       0.00000000       1.05353535       0.00000000       0.00000000     184.72532654
2
Properties=species:S:1:pos:R:3:forces:R:3 energy=34.187974032330736 pbc="F F F"
Pd       0.00000000       0.00000000       0.00000000       0.00000000       0.00000000    -153.55708313
Pd       0.00000000       0.00000000       1.11313131       0.00000000       0.00000000     153.55708313
2
Properties=species:S:1:pos:R:3:forces:R:3 energy=25.400933625672746 pbc="F F F"
Pd       0.00000000       0.00000000       0.00000000       0.00000000       0.00000000    -146.26576233
Pd       0.00000000       0.00000000       1.17272727       0.00000000       0.00000000     146.26576233
2
Properties=species:S:1:pos:R:3:forces:R:3 energy=17.941395181254475 pbc="F F F"
Pd       0.00000000       0.00000000       0.00000000       0.00000000       0.00000000    -108.03076935
Pd       0.00000000       0.00000000       1.23232323       0.00000000       0.00000000     108.03076935
2
Properties=species:S:1:pos:R:3:forces:R:3 energy=12.429258600887247 pbc="F F F"
Pd       0.00000000       0.00000000       0.00000000       0.00000000       0.00000000     -78.29974365
Pd       0.00000000       0.00000000       1.29191919       0.00000000       0.00000000      78.29974365
2
Properties=species:S:1:pos:R:3:forces:R:3 energy=8.350430662921253 pbc="F F F"
Pd       0.00000000       0.00000000       0.00000000       0.00000000       0.00000000     -59.19347000
Pd       0.00000000       0.00000000       1.35151515       0.00000000       0.00000000      59.19347000
2
Properties=species:S:1:pos:R:3:forces:R:3 energy=5.342026110777528 pbc="F F F"
Pd       0.00000000       0.00000000       0.00000000       0.00000000       0.00000000     -41.71460342
Pd       0.00000000       0.00000000       1.41111111       0.00000000       0.00000000      41.71460342
2
Properties=species:S:1:pos:R:3:forces:R:3 energy=3.2564106568102145 pbc="F F F"
Pd       0.00000000       0.00000000       0.00000000       0.00000000       0.00000000     -28.67164612
Pd       0.00000000       0.00000000       1.47070707       0.00000000       0.00000000      28.67164612
2
Properties=species:S:1:pos:R:3:forces:R:3 energy=1.8120103273522614 pbc="F F F"
Pd       0.00000000       0.00000000       0.00000000       0.00000000       0.00000000     -20.69634247
Pd       0.00000000       0.00000000       1.53030303       0.00000000       0.00000000      20.69634247
2
Properties=species:S:1:pos:R:3:forces:R:3 energy=0.782967603135399 pbc="F F F"
Pd       0.00000000       0.00000000       0.00000000       0.00000000       0.00000000     -14.26761532
Pd       0.00000000       0.00000000       1.58989899       0.00000000       0.00000000      14.26761532
2
Properties=species:S:1:pos:R:3:forces:R:3 energy=0.02302432954541099 pbc="F F F"
Pd       0.00000000       0.00000000       0.00000000       0.00000000       0.00000000     -11.53217793
Pd       0.00000000       0.00000000       1.64949495       0.00000000       0.00000000      11.53217793
2
Properties=species:S:1:pos:R:3:forces:R:3 energy=-0.6028025846722428 pbc="F F F"
Pd       0.00000000       0.00000000       0.00000000       0.00000000       0.00000000      -9.40561008
Pd       0.00000000       0.00000000       1.70909091       0.00000000       0.00000000       9.40561008
2
Properties=species:S:1:pos:R:3:forces:R:3 energy=-1.1179587472532377 pbc="F F F"
Pd       0.00000000       0.00000000       0.00000000       0.00000000       0.00000000      -8.34811878
Pd       0.00000000       0.00000000       1.76868687       0.00000000       0.00000000       8.34811878
2
Properties=species:S:1:pos:R:3:forces:R:3 energy=-1.6375664904808211 pbc="F F F"
Pd       0.00000000       0.00000000       0.00000000       0.00000000       0.00000000      -9.06866550
Pd       0.00000000       0.00000000       1.82828283       0.00000000       0.00000000       9.06866550
2
Properties=species:S:1:pos:R:3:forces:R:3 energy=-2.1810686857784103 pbc="F F F"
Pd       0.00000000       0.00000000       0.00000000       0.00000000       0.00000000      -9.11886597
Pd       0.00000000       0.00000000       1.88787879       0.00000000       0.00000000       9.11886597
2
Properties=species:S:1:pos:R:3:forces:R:3 energy=-2.7146047801304376 pbc="F F F"
Pd       0.00000000       0.00000000       0.00000000       0.00000000       0.00000000      -8.66245747
Pd       0.00000000       0.00000000       1.94747475       0.00000000       0.00000000       8.66245747
2
Properties=species:S:1:pos:R:3:forces:R:3 energy=-3.207551055212399 pbc="F F F"
Pd       0.00000000       0.00000000       0.00000000       0.00000000       0.00000000      -7.85874891
Pd       0.00000000       0.00000000       2.00707071       0.00000000       0.00000000       7.85874891
2
Properties=species:S:1:pos:R:3:forces:R:3 energy=-3.6459908393112346 pbc="F F F"
Pd       0.00000000       0.00000000       0.00000000       0.00000000       0.00000000      -6.80776787
Pd       0.00000000       0.00000000       2.06666667       0.00000000       0.00000000       6.80776787
2
Properties=species:S:1:pos:R:3:forces:R:3 energy=-4.013542843932506 pbc="F F F"
Pd       0.00000000       0.00000000       0.00000000       0.00000000       0.00000000      -5.48026228
Pd       0.00000000       0.00000000       2.12626263       0.00000000       0.00000000       5.48026228
2
Properties=species:S:1:pos:R:3:forces:R:3 energy=-4.299607264225675 pbc="F F F"
Pd       0.00000000       0.00000000       0.00000000       0.00000000       0.00000000      -4.16657829
Pd       0.00000000       0.00000000       2.18585859       0.00000000       0.00000000       4.16657829
2
Properties=species:S:1:pos:R:3:forces:R:3 energy=-4.5123967065778485 pbc="F F F"
Pd       0.00000000       0.00000000       0.00000000       0.00000000       0.00000000      -2.97445655
Pd       0.00000000       0.00000000       2.24545455       0.00000000       0.00000000       2.97445655
2
Properties=species:S:1:pos:R:3:forces:R:3 energy=-4.656449149770254 pbc="F F F"
Pd       0.00000000       0.00000000       0.00000000       0.00000000       0.00000000      -1.88643670
Pd       0.00000000       0.00000000       2.30505051       0.00000000       0.00000000       1.88643670
2
Properties=species:S:1:pos:R:3:forces:R:3 energy=-4.7398030523188055 pbc="F F F"
Pd       0.00000000       0.00000000       0.00000000       0.00000000       0.00000000      -0.93420076
Pd       0.00000000       0.00000000       2.36464646       0.00000000       0.00000000       0.93420076
2
Properties=species:S:1:pos:R:3:forces:R:3 energy=-4.771450380235824 pbc="F F F"
Pd       0.00000000       0.00000000       0.00000000       0.00000000       0.00000000      -0.16553399
Pd       0.00000000       0.00000000       2.42424242       0.00000000       0.00000000       0.16553399
2
Properties=species:S:1:pos:R:3:forces:R:3 energy=-4.764913272314545 pbc="F F F"
Pd       0.00000000       0.00000000       0.00000000       0.00000000       0.00000000       0.34089869
Pd       0.00000000       0.00000000       2.48383838       0.00000000       0.00000000      -0.34089869
2
Properties=species:S:1:pos:R:3:forces:R:3 energy=-4.733990206096797 pbc="F F F"
Pd       0.00000000       0.00000000       0.00000000       0.00000000       0.00000000       0.68425047
Pd       0.00000000       0.00000000       2.54343434       0.00000000       0.00000000      -0.68425047
2
Properties=species:S:1:pos:R:3:forces:R:3 energy=-4.6850482956978885 pbc="F F F"
Pd       0.00000000       0.00000000       0.00000000       0.00000000       0.00000000       0.93964618
Pd       0.00000000       0.00000000       2.60303030       0.00000000       0.00000000      -0.93964618
2
Properties=species:S:1:pos:R:3:forces:R:3 energy=-4.624154906548811 pbc="F F F"
Pd       0.00000000       0.00000000       0.00000000       0.00000000       0.00000000       1.08859515
Pd       0.00000000       0.00000000       2.66262626       0.00000000       0.00000000      -1.08859515
2
Properties=species:S:1:pos:R:3:forces:R:3 energy=-4.55677366644048 pbc="F F F"
Pd       0.00000000       0.00000000       0.00000000       0.00000000       0.00000000       1.16235483
Pd       0.00000000       0.00000000       2.72222222       0.00000000       0.00000000      -1.16235483
2
Properties=species:S:1:pos:R:3:forces:R:3 energy=-4.486630472324924 pbc="F F F"
Pd       0.00000000       0.00000000       0.00000000       0.00000000       0.00000000       1.18508637
Pd       0.00000000       0.00000000       2.78181818       0.00000000       0.00000000      -1.18508637
2
Properties=species:S:1:pos:R:3:forces:R:3 energy=-4.416092884072095 pbc="F F F"
Pd       0.00000000       0.00000000       0.00000000       0.00000000       0.00000000       1.17828000
Pd       0.00000000       0.00000000       2.84141414       0.00000000       0.00000000      -1.17828000
2
Properties=species:S:1:pos:R:3:forces:R:3 energy=-4.3466579776919785 pbc="F F F"
Pd       0.00000000       0.00000000       0.00000000       0.00000000       0.00000000       1.14766192
Pd       0.00000000       0.00000000       2.90101010       0.00000000       0.00000000      -1.14766192
2
Properties=species:S:1:pos:R:3:forces:R:3 energy=-4.279777909042553 pbc="F F F"
Pd       0.00000000       0.00000000       0.00000000       0.00000000       0.00000000       1.09368920
Pd       0.00000000       0.00000000       2.96060606       0.00000000       0.00000000      -1.09368920
2
Properties=species:S:1:pos:R:3:forces:R:3 energy=-4.2164947178437835 pbc="F F F"
Pd       0.00000000       0.00000000       0.00000000       0.00000000       0.00000000       1.02986753
Pd       0.00000000       0.00000000       3.02020202       0.00000000       0.00000000      -1.02986753
2
Properties=species:S:1:pos:R:3:forces:R:3 energy=-4.1569462961758115 pbc="F F F"
Pd       0.00000000       0.00000000       0.00000000       0.00000000       0.00000000       0.96954536
Pd       0.00000000       0.00000000       3.07979798       0.00000000       0.00000000      -0.96954536
2
Properties=species:S:1:pos:R:3:forces:R:3 energy=-4.100816133215679 pbc="F F F"
Pd       0.00000000       0.00000000       0.00000000       0.00000000       0.00000000       0.91501147
Pd       0.00000000       0.00000000       3.13939394       0.00000000       0.00000000      -0.91501147
2
Properties=species:S:1:pos:R:3:forces:R:3 energy=-4.047782110775528 pbc="F F F"
Pd       0.00000000       0.00000000       0.00000000       0.00000000       0.00000000       0.86564499
Pd       0.00000000       0.00000000       3.19898990       0.00000000       0.00000000      -0.86564499
2
Properties=species:S:1:pos:R:3:forces:R:3 energy=-3.9975423629033657 pbc="F F F"
Pd       0.00000000       0.00000000       0.00000000       0.00000000       0.00000000       0.82101172
Pd       0.00000000       0.00000000       3.25858586       0.00000000       0.00000000      -0.82101172
2
Properties=species:S:1:pos:R:3:forces:R:3 energy=-3.949871273243002 pbc="F F F"
Pd       0.00000000       0.00000000       0.00000000       0.00000000       0.00000000       0.77900219
Pd       0.00000000       0.00000000       3.31818182       0.00000000       0.00000000      -0.77900219
2
Properties=species:S:1:pos:R:3:forces:R:3 energy=-3.904689905885453 pbc="F F F"
Pd       0.00000000       0.00000000       0.00000000       0.00000000       0.00000000       0.73709798
Pd       0.00000000       0.00000000       3.37777778       0.00000000       0.00000000      -0.73709798
2
Properties=species:S:1:pos:R:3:forces:R:3 energy=-3.8620452272745975 pbc="F F F"
Pd       0.00000000       0.00000000       0.00000000       0.00000000       0.00000000       0.69373232
Pd       0.00000000       0.00000000       3.43737374       0.00000000       0.00000000      -0.69373232
2
Properties=species:S:1:pos:R:3:forces:R:3 energy=-3.822033786919287 pbc="F F F"
Pd       0.00000000       0.00000000       0.00000000       0.00000000       0.00000000       0.64880532
Pd       0.00000000       0.00000000       3.49696970       0.00000000       0.00000000      -0.64880532
2
Properties=species:S:1:pos:R:3:forces:R:3 energy=-3.784729071754711 pbc="F F F"
Pd       0.00000000       0.00000000       0.00000000       0.00000000       0.00000000       0.60312349
Pd       0.00000000       0.00000000       3.55656566       0.00000000       0.00000000      -0.60312349
2
Properties=species:S:1:pos:R:3:forces:R:3 energy=-3.750149589731019 pbc="F F F"
Pd       0.00000000       0.00000000       0.00000000       0.00000000       0.00000000       0.55732417
Pd       0.00000000       0.00000000       3.61616162       0.00000000       0.00000000      -0.55732417
2
Properties=species:S:1:pos:R:3:forces:R:3 energy=-3.7182974175954047 pbc="F F F"
Pd       0.00000000       0.00000000       0.00000000       0.00000000       0.00000000       0.51161861
Pd       0.00000000       0.00000000       3.67575758       0.00000000       0.00000000      -0.51161861
2
Properties=species:S:1:pos:R:3:forces:R:3 energy=-3.689162351378516 pbc="F F F"
Pd       0.00000000       0.00000000       0.00000000       0.00000000       0.00000000       0.46626890
Pd       0.00000000       0.00000000       3.73535354       0.00000000       0.00000000      -0.46626890
2
Properties=species:S:1:pos:R:3:forces:R:3 energy=-3.662703183032404 pbc="F F F"
Pd       0.00000000       0.00000000       0.00000000       0.00000000       0.00000000       0.42190576
Pd       0.00000000       0.00000000       3.79494949       0.00000000       0.00000000      -0.42190576
2
Properties=species:S:1:pos:R:3:forces:R:3 energy=-3.6388377565422823 pbc="F F F"
Pd       0.00000000       0.00000000       0.00000000       0.00000000       0.00000000       0.37939408
Pd       0.00000000       0.00000000       3.85454545       0.00000000       0.00000000      -0.37939408
2
Properties=species:S:1:pos:R:3:forces:R:3 energy=-3.6174306715307276 pbc="F F F"
Pd       0.00000000       0.00000000       0.00000000       0.00000000       0.00000000       0.33950347
Pd       0.00000000       0.00000000       3.91414141       0.00000000       0.00000000      -0.33950347
2
Properties=species:S:1:pos:R:3:forces:R:3 energy=-3.59831024031911 pbc="F F F"
Pd       0.00000000       0.00000000       0.00000000       0.00000000       0.00000000       0.30270335
Pd       0.00000000       0.00000000       3.97373737       0.00000000       0.00000000      -0.30270335
2
Properties=species:S:1:pos:R:3:forces:R:3 energy=-3.5812857681068877 pbc="F F F"
Pd       0.00000000       0.00000000       0.00000000       0.00000000       0.00000000       0.26918080
Pd       0.00000000       0.00000000       4.03333333       0.00000000       0.00000000      -0.26918080
2
Properties=species:S:1:pos:R:3:forces:R:3 energy=-3.5661602565124806 pbc="F F F"
Pd       0.00000000       0.00000000       0.00000000       0.00000000       0.00000000       0.23897180
Pd       0.00000000       0.00000000       4.09292929       0.00000000       0.00000000      -0.23897180
2
Properties=species:S:1:pos:R:3:forces:R:3 energy=-3.5527345683948086 pbc="F F F"
Pd       0.00000000       0.00000000       0.00000000       0.00000000       0.00000000       0.21205939
Pd       0.00000000       0.00000000       4.15252525       0.00000000       0.00000000      -0.21205939
2
Properties=species:S:1:pos:R:3:forces:R:3 energy=-3.5408201567367468 pbc="F F F"
Pd       0.00000000       0.00000000       0.00000000       0.00000000       0.00000000       0.18837371
Pd       0.00000000       0.00000000       4.21212121       0.00000000       0.00000000      -0.18837371
2
Properties=species:S:1:pos:R:3:forces:R:3 energy=-3.530221721109386 pbc="F F F"
Pd       0.00000000       0.00000000       0.00000000       0.00000000       0.00000000       0.16774863
Pd       0.00000000       0.00000000       4.27171717       0.00000000       0.00000000      -0.16774863
2
Properties=species:S:1:pos:R:3:forces:R:3 energy=-3.5207699447091994 pbc="F F F"
Pd       0.00000000       0.00000000       0.00000000       0.00000000       0.00000000       0.14990905
Pd       0.00000000       0.00000000       4.33131313       0.00000000       0.00000000      -0.14990905
2
Properties=species:S:1:pos:R:3:forces:R:3 energy=-3.5123065160011655 pbc="F F F"
Pd       0.00000000       0.00000000       0.00000000       0.00000000       0.00000000       0.13450085
Pd       0.00000000       0.00000000       4.39090909       0.00000000       0.00000000      -0.13450085
2
Properties=species:S:1:pos:R:3:forces:R:3 energy=-3.504698218421606 pbc="F F F"
Pd       0.00000000       0.00000000       0.00000000       0.00000000       0.00000000       0.12114470
Pd       0.00000000       0.00000000       4.45050505       0.00000000       0.00000000      -0.12114470
2
Properties=species:S:1:pos:R:3:forces:R:3 energy=-3.4978334721408393 pbc="F F F"
Pd       0.00000000       0.00000000       0.00000000       0.00000000       0.00000000       0.10948074
Pd       0.00000000       0.00000000       4.51010101       0.00000000       0.00000000      -0.10948074
2
Properties=species:S:1:pos:R:3:forces:R:3 energy=-3.4916205994407767 pbc="F F F"
Pd       0.00000000       0.00000000       0.00000000       0.00000000       0.00000000       0.09919816
Pd       0.00000000       0.00000000       4.56969697       0.00000000       0.00000000      -0.09919816
2
Properties=species:S:1:pos:R:3:forces:R:3 energy=-3.485988371244172 pbc="F F F"
Pd       0.00000000       0.00000000       0.00000000       0.00000000       0.00000000       0.09004824
Pd       0.00000000       0.00000000       4.62929293       0.00000000       0.00000000      -0.09004824
2
Properties=species:S:1:pos:R:3:forces:R:3 energy=-3.4808704758928495 pbc="F F F"
Pd       0.00000000       0.00000000       0.00000000       0.00000000       0.00000000       0.08184754
Pd       0.00000000       0.00000000       4.68888889       0.00000000       0.00000000      -0.08184754
2
Properties=species:S:1:pos:R:3:forces:R:3 energy=-3.476215570741896 pbc="F F F"
Pd       0.00000000       0.00000000       0.00000000       0.00000000       0.00000000       0.07447051
Pd       0.00000000       0.00000000       4.74848485       0.00000000       0.00000000      -0.07447051
2
Properties=species:S:1:pos:R:3:forces:R:3 energy=-3.4719780195130348 pbc="F F F"
Pd       0.00000000       0.00000000       0.00000000       0.00000000       0.00000000       0.06784480
Pd       0.00000000       0.00000000       4.80808081       0.00000000       0.00000000      -0.06784480
2
Properties=species:S:1:pos:R:3:forces:R:3 energy=-3.4681142359884696 pbc="F F F"
Pd       0.00000000       0.00000000       0.00000000       0.00000000       0.00000000       0.06193529
Pd       0.00000000       0.00000000       4.86767677       0.00000000       0.00000000      -0.06193529
2
Properties=species:S:1:pos:R:3:forces:R:3 energy=-3.464582118474704 pbc="F F F"
Pd       0.00000000       0.00000000       0.00000000       0.00000000       0.00000000       0.05672619
Pd       0.00000000       0.00000000       4.92727273       0.00000000       0.00000000      -0.05672619
2
Properties=species:S:1:pos:R:3:forces:R:3 energy=-3.461339625626713 pbc="F F F"
Pd       0.00000000       0.00000000       0.00000000       0.00000000       0.00000000       0.05219774
Pd       0.00000000       0.00000000       4.98686869       0.00000000       0.00000000      -0.05219774
2
Properties=species:S:1:pos:R:3:forces:R:3 energy=-3.458347786358532 pbc="F F F"
Pd       0.00000000       0.00000000       0.00000000       0.00000000       0.00000000       0.04830387
Pd       0.00000000       0.00000000       5.04646465       0.00000000       0.00000000      -0.04830387
2
Properties=species:S:1:pos:R:3:forces:R:3 energy=-3.4555715664024653 pbc="F F F"
Pd       0.00000000       0.00000000       0.00000000       0.00000000       0.00000000       0.04495668
Pd       0.00000000       0.00000000       5.10606061       0.00000000       0.00000000      -0.04495668
2
Properties=species:S:1:pos:R:3:forces:R:3 energy=-3.452980558974238 pbc="F F F"
Pd       0.00000000       0.00000000       0.00000000       0.00000000       0.00000000       0.04202604
Pd       0.00000000       0.00000000       5.16565657       0.00000000       0.00000000      -0.04202604
2
Properties=species:S:1:pos:R:3:forces:R:3 energy=-3.450557574177489 pbc="F F F"
Pd       0.00000000       0.00000000       0.00000000       0.00000000       0.00000000       0.03935551
Pd       0.00000000       0.00000000       5.22525253       0.00000000       0.00000000      -0.03935551
2
Properties=species:S:1:pos:R:3:forces:R:3 energy=-3.4482886745246906 pbc="F F F"
Pd       0.00000000       0.00000000       0.00000000       0.00000000       0.00000000       0.03678467
Pd       0.00000000       0.00000000       5.28484848       0.00000000       0.00000000      -0.03678467
2
Properties=species:S:1:pos:R:3:forces:R:3 energy=-3.4461733453246692 pbc="F F F"
Pd       0.00000000       0.00000000       0.00000000       0.00000000       0.00000000       0.03418049
Pd       0.00000000       0.00000000       5.34444444       0.00000000       0.00000000      -0.03418049
2
Properties=species:S:1:pos:R:3:forces:R:3 energy=-3.444215911613756 pbc="F F F"
Pd       0.00000000       0.00000000       0.00000000       0.00000000       0.00000000       0.03145877
Pd       0.00000000       0.00000000       5.40404040       0.00000000       0.00000000      -0.03145877
2
Properties=species:S:1:pos:R:3:forces:R:3 energy=-3.4424261322023644 pbc="F F F"
Pd       0.00000000       0.00000000       0.00000000       0.00000000       0.00000000       0.02859868
Pd       0.00000000       0.00000000       5.46363636       0.00000000       0.00000000      -0.02859868
2
Properties=species:S:1:pos:R:3:forces:R:3 energy=-3.440810177782852 pbc="F F F"
Pd       0.00000000       0.00000000       0.00000000       0.00000000       0.00000000       0.02564120
Pd       0.00000000       0.00000000       5.52323232       0.00000000       0.00000000      -0.02564120
2
Properties=species:S:1:pos:R:3:forces:R:3 energy=-3.4393697643703116 pbc="F F F"
Pd       0.00000000       0.00000000       0.00000000       0.00000000       0.00000000       0.02267955
Pd       0.00000000       0.00000000       5.58282828       0.00000000       0.00000000      -0.02267955
2
Properties=species:S:1:pos:R:3:forces:R:3 energy=-3.438104059067293 pbc="F F F"
Pd       0.00000000       0.00000000       0.00000000       0.00000000       0.00000000       0.01983975
Pd       0.00000000       0.00000000       5.64242424       0.00000000       0.00000000      -0.01983975
2
Properties=species:S:1:pos:R:3:forces:R:3 energy=-3.4370002415231258 pbc="F F F"
Pd       0.00000000       0.00000000       0.00000000       0.00000000       0.00000000       0.01725623
Pd       0.00000000       0.00000000       5.70202020       0.00000000       0.00000000      -0.01725623
2
Properties=species:S:1:pos:R:3:forces:R:3 energy=-3.4360397297434644 pbc="F F F"
Pd       0.00000000       0.00000000       0.00000000       0.00000000       0.00000000       0.01504703
Pd       0.00000000       0.00000000       5.76161616       0.00000000       0.00000000      -0.01504703
2
Properties=species:S:1:pos:R:3:forces:R:3 energy=-3.4351976953335743 pbc="F F F"
Pd       0.00000000       0.00000000       0.00000000       0.00000000       0.00000000       0.01328319
Pd       0.00000000       0.00000000       5.82121212       0.00000000       0.00000000      -0.01328319
2
Properties=species:S:1:pos:R:3:forces:R:3 energy=-3.4344479237367564 pbc="F F F"
Pd       0.00000000       0.00000000       0.00000000       0.00000000       0.00000000       0.01197262
Pd       0.00000000       0.00000000       5.88080808       0.00000000       0.00000000      -0.01197262
2
Properties=species:S:1:pos:R:3:forces:R:3 energy=-3.433761825713988 pbc="F F F"
Pd       0.00000000       0.00000000       0.00000000       0.00000000       0.00000000       0.01104238
Pd       0.00000000       0.00000000       5.94040404       0.00000000       0.00000000      -0.01104238
2
Properties=species:S:1:pos:R:3:forces:R:3 energy=-3.433124697324631 pbc="F F F"
Pd       0.00000000       0.00000000       0.00000000       0.00000000       0.00000000       0.01034850
Pd       0.00000000       0.00000000       6.00000000       0.00000000       0.00000000      -0.01034850
