2
Properties=species:S:1:pos:R:3:forces:R:3 energy=206679.8265001629 pbc="F F F"
Pm       0.00000000       0.00000000       0.00000000       0.00000000       0.00000000 -1177421.25000000
Pm       0.00000000       0.00000000       0.10000000       0.00000000       0.00000000 1177421.25000000
2
Properties=species:S:1:pos:R:3:forces:R:3 energy=132441.5921251629 pbc="F F F"
Pm       0.00000000       0.00000000       0.00000000       0.00000000       0.00000000 -1228845.50000000
Pm       0.00000000       0.00000000       0.15959596       0.00000000       0.00000000 1228845.50000000
2
Properties=species:S:1:pos:R:3:forces:R:3 energy=67794.72493766289 pbc="F F F"
Pm       0.00000000       0.00000000       0.00000000       0.00000000       0.00000000 -902475.06250000
Pm       0.00000000       0.00000000       0.21919192       0.00000000       0.00000000  902475.06250000
2
Properties=species:S:1:pos:R:3:forces:R:3 energy=26321.91243766289 pbc="F F F"
Pm       0.00000000       0.00000000       0.00000000       0.00000000       0.00000000 -493524.62500000
Pm       0.00000000       0.00000000       0.27878788       0.00000000       0.00000000  493524.62500000
2
Properties=species:S:1:pos:R:3:forces:R:3 energy=6854.48763297539 pbc="F F F"
Pm       0.00000000       0.00000000       0.00000000       0.00000000       0.00000000 -188009.93750000
Pm       0.00000000       0.00000000       0.33838384       0.00000000       0.00000000  188009.93750000
2
Properties=species:S:1:pos:R:3:forces:R:3 energy=680.4409410808587 pbc="F F F"
Pm       0.00000000       0.00000000       0.00000000       0.00000000       0.00000000  -44997.46875000
Pm       0.00000000       0.00000000       0.39797980       0.00000000       0.00000000   44997.46875000
2
Properties=species:S:1:pos:R:3:forces:R:3 energy=-562.6465222853764 pbc="F F F"
Pm       0.00000000       0.00000000       0.00000000       0.00000000       0.00000000   -1305.65185547
Pm       0.00000000       0.00000000       0.45757576       0.00000000       0.00000000    1305.65185547
2
Properties=species:S:1:pos:R:3:forces:R:3 energy=-510.2152783762206 pbc="F F F"
Pm       0.00000000       0.00000000       0.00000000       0.00000000       0.00000000   -2772.18261719
Pm       0.00000000       0.00000000       0.51717172       0.00000000       0.00000000    2772.18261719
2
Properties=species:S:1:pos:R:3:forces:R:3 energy=531.4475329284188 pbc="F F F"
Pm       0.00000000       0.00000000       0.00000000       0.00000000       0.00000000   11408.25683594
Pm       0.00000000       0.00000000       0.57676768       0.00000000       0.00000000  -11408.25683594
2
Properties=species:S:1:pos:R:3:forces:R:3 energy=430.74922975644773 pbc="F F F"
Pm       0.00000000       0.00000000       0.00000000       0.00000000       0.00000000   -5359.74560547
Pm       0.00000000       0.00000000       0.63636364       0.00000000       0.00000000    5359.74560547
2
Properties=species:S:1:pos:R:3:forces:R:3 energy=217.19310799363228 pbc="F F F"
Pm       0.00000000       0.00000000       0.00000000       0.00000000       0.00000000   -1830.31506348
Pm       0.00000000       0.00000000       0.69595960       0.00000000       0.00000000    1830.31506348
2
Properties=species:S:1:pos:R:3:forces:R:3 energy=124.11083271704888 pbc="F F F"
Pm       0.00000000       0.00000000       0.00000000       0.00000000       0.00000000    -873.46496582
Pm       0.00000000       0.00000000       0.75555556       0.00000000       0.00000000     873.46496582
2
Properties=species:S:1:pos:R:3:forces:R:3 energy=97.18618841156078 pbc="F F F"
Pm       0.00000000       0.00000000       0.00000000       0.00000000       0.00000000    -205.16708374
Pm       0.00000000       0.00000000       0.81515152       0.00000000       0.00000000     205.16708374
2
Properties=species:S:1:pos:R:3:forces:R:3 energy=83.60297483349163 pbc="F F F"
Pm       0.00000000       0.00000000       0.00000000       0.00000000       0.00000000    -250.56781006
Pm       0.00000000       0.00000000       0.87474747       0.00000000       0.00000000     250.56781006
2
Properties=species:S:1:pos:R:3:forces:R:3 energy=67.99575163953166 pbc="F F F"
Pm       0.00000000       0.00000000       0.00000000       0.00000000       0.00000000    -276.89703369
Pm       0.00000000       0.00000000       0.93434343       0.00000000       0.00000000     276.89703369
2
Properties=species:S:1:pos:R:3:forces:R:3 energy=51.3931519980418 pbc="F F F"
Pm       0.00000000       0.00000000       0.00000000       0.00000000       0.00000000    -284.38223267
Pm       0.00000000       0.00000000       0.99393939       0.00000000       0.00000000     284.38223267
2
Properties=species:S:1:pos:R:3:forces:R:3 energy=35.97789992071678 pbc="F F F"
Pm       0.00000000       0.00000000       0.00000000       0.00000000       0.00000000    -215.97793579
Pm       0.00000000       0.00000000       1.05353535       0.00000000       0.00000000     215.97793579
2
Properties=species:S:1:pos:R:3:forces:R:3 energy=25.02044415560542 pbc="F F F"
Pm       0.00000000       0.00000000       0.00000000       0.00000000       0.00000000    -136.95243835
Pm       0.00000000       0.00000000       1.11313131       0.00000000       0.00000000     136.95243835
2
Properties=species:S:1:pos:R:3:forces:R:3 energy=18.797777538573154 pbc="F F F"
Pm       0.00000000       0.00000000       0.00000000       0.00000000       0.00000000     -77.89273834
Pm       0.00000000       0.00000000       1.17272727       0.00000000       0.00000000      77.89273834
2
Properties=species:S:1:pos:R:3:forces:R:3 energy=14.545379487834822 pbc="F F F"
Pm       0.00000000       0.00000000       0.00000000       0.00000000       0.00000000     -57.67833328
Pm       0.00000000       0.00000000       1.23232323       0.00000000       0.00000000      57.67833328
2
Properties=species:S:1:pos:R:3:forces:R:3 energy=11.972280243456629 pbc="F F F"
Pm       0.00000000       0.00000000       0.00000000       0.00000000       0.00000000     -28.98547173
Pm       0.00000000       0.00000000       1.29191919       0.00000000       0.00000000      28.98547173
2
Properties=species:S:1:pos:R:3:forces:R:3 energy=11.09798442858545 pbc="F F F"
Pm       0.00000000       0.00000000       0.00000000       0.00000000       0.00000000      -0.18306448
Pm       0.00000000       0.00000000       1.35151515       0.00000000       0.00000000       0.18306448
2
Properties=species:S:1:pos:R:3:forces:R:3 energy=11.363261340148235 pbc="F F F"
Pm       0.00000000       0.00000000       0.00000000       0.00000000       0.00000000       3.65236354
Pm       0.00000000       0.00000000       1.41111111       0.00000000       0.00000000      -3.65236354
2
Properties=species:S:1:pos:R:3:forces:R:3 energy=11.384192355322126 pbc="F F F"
Pm       0.00000000       0.00000000       0.00000000       0.00000000       0.00000000       0.70294082
Pm       0.00000000       0.00000000       1.47070707       0.00000000       0.00000000      -0.70294082
2
Properties=species:S:1:pos:R:3:forces:R:3 energy=11.695218582411414 pbc="F F F"
Pm       0.00000000       0.00000000       0.00000000       0.00000000       0.00000000       7.58924389
Pm       0.00000000       0.00000000       1.53030303       0.00000000       0.00000000      -7.58924389
2
Properties=species:S:1:pos:R:3:forces:R:3 energy=12.079156106699104 pbc="F F F"
Pm       0.00000000       0.00000000       0.00000000       0.00000000       0.00000000       3.90056777
Pm       0.00000000       0.00000000       1.58989899       0.00000000       0.00000000      -3.90056777
2
Properties=species:S:1:pos:R:3:forces:R:3 energy=12.11778461090628 pbc="F F F"
Pm       0.00000000       0.00000000       0.00000000       0.00000000       0.00000000      -2.26880765
Pm       0.00000000       0.00000000       1.64949495       0.00000000       0.00000000       2.26880765
2
Properties=species:S:1:pos:R:3:forces:R:3 energy=11.658531653266335 pbc="F F F"
Pm       0.00000000       0.00000000       0.00000000       0.00000000       0.00000000     -14.08378983
Pm       0.00000000       0.00000000       1.70909091       0.00000000       0.00000000      14.08378983
2
Properties=species:S:1:pos:R:3:forces:R:3 energy=10.560192627878088 pbc="F F F"
Pm       0.00000000       0.00000000       0.00000000       0.00000000       0.00000000     -21.55520248
Pm       0.00000000       0.00000000       1.76868687       0.00000000       0.00000000      21.55520248
2
Properties=species:S:1:pos:R:3:forces:R:3 energy=9.09634072259153 pbc="F F F"
Pm       0.00000000       0.00000000       0.00000000       0.00000000       0.00000000     -27.77851486
Pm       0.00000000       0.00000000       1.82828283       0.00000000       0.00000000      27.77851486
2
Properties=species:S:1:pos:R:3:forces:R:3 energy=7.372200863563874 pbc="F F F"
Pm       0.00000000       0.00000000       0.00000000       0.00000000       0.00000000     -29.38109970
Pm       0.00000000       0.00000000       1.88787879       0.00000000       0.00000000      29.38109970
2
Properties=species:S:1:pos:R:3:forces:R:3 energy=5.634216149705852 pbc="F F F"
Pm       0.00000000       0.00000000       0.00000000       0.00000000       0.00000000     -28.60738945
Pm       0.00000000       0.00000000       1.94747475       0.00000000       0.00000000      28.60738945
2
Properties=species:S:1:pos:R:3:forces:R:3 energy=4.010427287548113 pbc="F F F"
Pm       0.00000000       0.00000000       0.00000000       0.00000000       0.00000000     -25.64160538
Pm       0.00000000       0.00000000       2.00707071       0.00000000       0.00000000      25.64160538
2
Properties=species:S:1:pos:R:3:forces:R:3 energy=2.5823127634545116 pbc="F F F"
Pm       0.00000000       0.00000000       0.00000000       0.00000000       0.00000000     -22.23832703
Pm       0.00000000       0.00000000       2.06666667       0.00000000       0.00000000      22.23832703
2
Properties=species:S:1:pos:R:3:forces:R:3 energy=1.3789258439941672 pbc="F F F"
Pm       0.00000000       0.00000000       0.00000000       0.00000000       0.00000000     -18.06212044
Pm       0.00000000       0.00000000       2.12626263       0.00000000       0.00000000      18.06212044
2
Properties=species:S:1:pos:R:3:forces:R:3 energy=0.414993636798704 pbc="F F F"
Pm       0.00000000       0.00000000       0.00000000       0.00000000       0.00000000     -14.48893642
Pm       0.00000000       0.00000000       2.18585859       0.00000000       0.00000000      14.48893642
2
Properties=species:S:1:pos:R:3:forces:R:3 energy=-0.3598668557339503 pbc="F F F"
Pm       0.00000000       0.00000000       0.00000000       0.00000000       0.00000000     -11.54767799
Pm       0.00000000       0.00000000       2.24545455       0.00000000       0.00000000      11.54767799
2
Properties=species:S:1:pos:R:3:forces:R:3 energy=-0.9697410112458109 pbc="F F F"
Pm       0.00000000       0.00000000       0.00000000       0.00000000       0.00000000      -9.02105618
Pm       0.00000000       0.00000000       2.30505051       0.00000000       0.00000000       9.02105618
2
Properties=species:S:1:pos:R:3:forces:R:3 energy=-1.4483891699623914 pbc="F F F"
Pm       0.00000000       0.00000000       0.00000000       0.00000000       0.00000000      -7.15873957
Pm       0.00000000       0.00000000       2.36464646       0.00000000       0.00000000       7.15873957
2
Properties=species:S:1:pos:R:3:forces:R:3 energy=-1.8346603768912408 pbc="F F F"
Pm       0.00000000       0.00000000       0.00000000       0.00000000       0.00000000      -5.87220764
Pm       0.00000000       0.00000000       2.42424242       0.00000000       0.00000000       5.87220764
2
Properties=species:S:1:pos:R:3:forces:R:3 energy=-2.1550411715337563 pbc="F F F"
Pm       0.00000000       0.00000000       0.00000000       0.00000000       0.00000000      -4.93220425
Pm       0.00000000       0.00000000       2.48383838       0.00000000       0.00000000       4.93220425
2
Properties=species:S:1:pos:R:3:forces:R:3 energy=-2.427124025346221 pbc="F F F"
Pm       0.00000000       0.00000000       0.00000000       0.00000000       0.00000000      -4.22458172
Pm       0.00000000       0.00000000       2.54343434       0.00000000       0.00000000       4.22458172
2
Properties=species:S:1:pos:R:3:forces:R:3 energy=-2.6619486628717386 pbc="F F F"
Pm       0.00000000       0.00000000       0.00000000       0.00000000       0.00000000      -3.68956947
Pm       0.00000000       0.00000000       2.60303030       0.00000000       0.00000000       3.68956947
2
Properties=species:S:1:pos:R:3:forces:R:3 energy=-2.870563265009372 pbc="F F F"
Pm       0.00000000       0.00000000       0.00000000       0.00000000       0.00000000      -3.33316231
Pm       0.00000000       0.00000000       2.66262626       0.00000000       0.00000000       3.33316231
2
Properties=species:S:1:pos:R:3:forces:R:3 energy=-3.060363313313464 pbc="F F F"
Pm       0.00000000       0.00000000       0.00000000       0.00000000       0.00000000      -3.03556919
Pm       0.00000000       0.00000000       2.72222222       0.00000000       0.00000000       3.03556919
2
Properties=species:S:1:pos:R:3:forces:R:3 energy=-3.2317843741772223 pbc="F F F"
Pm       0.00000000       0.00000000       0.00000000       0.00000000       0.00000000      -2.71190882
Pm       0.00000000       0.00000000       2.78181818       0.00000000       0.00000000       2.71190882
2
Properties=species:S:1:pos:R:3:forces:R:3 energy=-3.3833325534537275 pbc="F F F"
Pm       0.00000000       0.00000000       0.00000000       0.00000000       0.00000000      -2.37515903
Pm       0.00000000       0.00000000       2.84141414       0.00000000       0.00000000       2.37515903
2
Properties=species:S:1:pos:R:3:forces:R:3 energy=-3.5153831839987917 pbc="F F F"
Pm       0.00000000       0.00000000       0.00000000       0.00000000       0.00000000      -2.06280470
Pm       0.00000000       0.00000000       2.90101010       0.00000000       0.00000000       2.06280470
2
Properties=species:S:1:pos:R:3:forces:R:3 energy=-3.63006586523016 pbc="F F F"
Pm       0.00000000       0.00000000       0.00000000       0.00000000       0.00000000      -1.79296899
Pm       0.00000000       0.00000000       2.96060606       0.00000000       0.00000000       1.79296899
2
Properties=species:S:1:pos:R:3:forces:R:3 energy=-3.7297890749472025 pbc="F F F"
Pm       0.00000000       0.00000000       0.00000000       0.00000000       0.00000000      -1.55820715
Pm       0.00000000       0.00000000       3.02020202       0.00000000       0.00000000       1.55820715
2
Properties=species:S:1:pos:R:3:forces:R:3 energy=-3.8162313246160044 pbc="F F F"
Pm       0.00000000       0.00000000       0.00000000       0.00000000       0.00000000      -1.34612823
Pm       0.00000000       0.00000000       3.07979798       0.00000000       0.00000000       1.34612823
2
Properties=species:S:1:pos:R:3:forces:R:3 energy=-3.8906618473654495 pbc="F F F"
Pm       0.00000000       0.00000000       0.00000000       0.00000000       0.00000000      -1.15539277
Pm       0.00000000       0.00000000       3.13939394       0.00000000       0.00000000       1.15539277
2
Properties=species:S:1:pos:R:3:forces:R:3 energy=-3.9544109241519587 pbc="F F F"
Pm       0.00000000       0.00000000       0.00000000       0.00000000       0.00000000      -0.98794353
Pm       0.00000000       0.00000000       3.19898990       0.00000000       0.00000000       0.98794353
2
Properties=species:S:1:pos:R:3:forces:R:3 energy=-4.008846742150128 pbc="F F F"
Pm       0.00000000       0.00000000       0.00000000       0.00000000       0.00000000      -0.84224582
Pm       0.00000000       0.00000000       3.25858586       0.00000000       0.00000000       0.84224582
2
Properties=species:S:1:pos:R:3:forces:R:3 energy=-4.055171447833189 pbc="F F F"
Pm       0.00000000       0.00000000       0.00000000       0.00000000       0.00000000      -0.71523750
Pm       0.00000000       0.00000000       3.31818182       0.00000000       0.00000000       0.71523750
2
Properties=species:S:1:pos:R:3:forces:R:3 energy=-4.094436393090783 pbc="F F F"
Pm       0.00000000       0.00000000       0.00000000       0.00000000       0.00000000      -0.60527486
Pm       0.00000000       0.00000000       3.37777778       0.00000000       0.00000000       0.60527486
2
Properties=species:S:1:pos:R:3:forces:R:3 energy=-4.127624113206309 pbc="F F F"
Pm       0.00000000       0.00000000       0.00000000       0.00000000       0.00000000      -0.51076597
Pm       0.00000000       0.00000000       3.43737374       0.00000000       0.00000000       0.51076597
2
Properties=species:S:1:pos:R:3:forces:R:3 energy=-4.155518665163753 pbc="F F F"
Pm       0.00000000       0.00000000       0.00000000       0.00000000       0.00000000      -0.42647627
Pm       0.00000000       0.00000000       3.49696970       0.00000000       0.00000000       0.42647627
2
Properties=species:S:1:pos:R:3:forces:R:3 energy=-4.178512922079339 pbc="F F F"
Pm       0.00000000       0.00000000       0.00000000       0.00000000       0.00000000      -0.34512663
Pm       0.00000000       0.00000000       3.55656566       0.00000000       0.00000000       0.34512663
2
Properties=species:S:1:pos:R:3:forces:R:3 energy=-4.19662493772036 pbc="F F F"
Pm       0.00000000       0.00000000       0.00000000       0.00000000       0.00000000      -0.26243314
Pm       0.00000000       0.00000000       3.61616162       0.00000000       0.00000000       0.26243314
2
Properties=species:S:1:pos:R:3:forces:R:3 energy=-4.209773406327168 pbc="F F F"
Pm       0.00000000       0.00000000       0.00000000       0.00000000       0.00000000      -0.17877759
Pm       0.00000000       0.00000000       3.67575758       0.00000000       0.00000000       0.17877759
2
Properties=species:S:1:pos:R:3:forces:R:3 energy=-4.217974271577807 pbc="F F F"
Pm       0.00000000       0.00000000       0.00000000       0.00000000       0.00000000      -0.09700184
Pm       0.00000000       0.00000000       3.73535354       0.00000000       0.00000000       0.09700184
2
Properties=species:S:1:pos:R:3:forces:R:3 energy=-4.221426582619075 pbc="F F F"
Pm       0.00000000       0.00000000       0.00000000       0.00000000       0.00000000      -0.01980987
Pm       0.00000000       0.00000000       3.79494949       0.00000000       0.00000000       0.01980987
2
Properties=species:S:1:pos:R:3:forces:R:3 energy=-4.2204579318898645 pbc="F F F"
Pm       0.00000000       0.00000000       0.00000000       0.00000000       0.00000000       0.05129909
Pm       0.00000000       0.00000000       3.85454545       0.00000000       0.00000000      -0.05129909
2
Properties=species:S:1:pos:R:3:forces:R:3 energy=-4.215442793926035 pbc="F F F"
Pm       0.00000000       0.00000000       0.00000000       0.00000000       0.00000000       0.11586121
Pm       0.00000000       0.00000000       3.91414141       0.00000000       0.00000000      -0.11586121
2
Properties=species:S:1:pos:R:3:forces:R:3 energy=-4.2067754803547635 pbc="F F F"
Pm       0.00000000       0.00000000       0.00000000       0.00000000       0.00000000       0.17388904
Pm       0.00000000       0.00000000       3.97373737       0.00000000       0.00000000      -0.17388904
2
Properties=species:S:1:pos:R:3:forces:R:3 energy=-4.194842838135446 pbc="F F F"
Pm       0.00000000       0.00000000       0.00000000       0.00000000       0.00000000       0.22549562
Pm       0.00000000       0.00000000       4.03333333       0.00000000       0.00000000      -0.22549562
2
Properties=species:S:1:pos:R:3:forces:R:3 energy=-4.180024046819082 pbc="F F F"
Pm       0.00000000       0.00000000       0.00000000       0.00000000       0.00000000       0.27072471
Pm       0.00000000       0.00000000       4.09292929       0.00000000       0.00000000      -0.27072471
2
Properties=species:S:1:pos:R:3:forces:R:3 energy=-4.1627022527094 pbc="F F F"
Pm       0.00000000       0.00000000       0.00000000       0.00000000       0.00000000       0.30948642
Pm       0.00000000       0.00000000       4.15252525       0.00000000       0.00000000      -0.30948642
2
Properties=species:S:1:pos:R:3:forces:R:3 energy=-4.143270278237467 pbc="F F F"
Pm       0.00000000       0.00000000       0.00000000       0.00000000       0.00000000       0.34150735
Pm       0.00000000       0.00000000       4.21212121       0.00000000       0.00000000      -0.34150735
2
Properties=species:S:1:pos:R:3:forces:R:3 energy=-4.122140133362273 pbc="F F F"
Pm       0.00000000       0.00000000       0.00000000       0.00000000       0.00000000       0.36642835
Pm       0.00000000       0.00000000       4.27171717       0.00000000       0.00000000      -0.36642835
2
Properties=species:S:1:pos:R:3:forces:R:3 energy=-4.099743192968779 pbc="F F F"
Pm       0.00000000       0.00000000       0.00000000       0.00000000       0.00000000       0.38397369
Pm       0.00000000       0.00000000       4.33131313       0.00000000       0.00000000      -0.38397369
2
Properties=species:S:1:pos:R:3:forces:R:3 energy=-4.076516870770053 pbc="F F F"
Pm       0.00000000       0.00000000       0.00000000       0.00000000       0.00000000       0.39417109
Pm       0.00000000       0.00000000       4.39090909       0.00000000       0.00000000      -0.39417109
2
Properties=species:S:1:pos:R:3:forces:R:3 energy=-4.052896939227597 pbc="F F F"
Pm       0.00000000       0.00000000       0.00000000       0.00000000       0.00000000       0.39748693
Pm       0.00000000       0.00000000       4.45050505       0.00000000       0.00000000      -0.39748693
2
Properties=species:S:1:pos:R:3:forces:R:3 energy=-4.029262406510312 pbc="F F F"
Pm       0.00000000       0.00000000       0.00000000       0.00000000       0.00000000       0.39480621
Pm       0.00000000       0.00000000       4.51010101       0.00000000       0.00000000      -0.39480621
2
Properties=species:S:1:pos:R:3:forces:R:3 energy=-4.005934499463748 pbc="F F F"
Pm       0.00000000       0.00000000       0.00000000       0.00000000       0.00000000       0.38728738
Pm       0.00000000       0.00000000       4.56969697       0.00000000       0.00000000      -0.38728738
2
Properties=species:S:1:pos:R:3:forces:R:3 energy=-3.9831701526166365 pbc="F F F"
Pm       0.00000000       0.00000000       0.00000000       0.00000000       0.00000000       0.37619609
Pm       0.00000000       0.00000000       4.62929293       0.00000000       0.00000000      -0.37619609
2
Properties=species:S:1:pos:R:3:forces:R:3 energy=-3.9611419303350934 pbc="F F F"
Pm       0.00000000       0.00000000       0.00000000       0.00000000       0.00000000       0.36276338
Pm       0.00000000       0.00000000       4.68888889       0.00000000       0.00000000      -0.36276338
2
Properties=species:S:1:pos:R:3:forces:R:3 energy=-3.939955357687064 pbc="F F F"
Pm       0.00000000       0.00000000       0.00000000       0.00000000       0.00000000       0.34809408
Pm       0.00000000       0.00000000       4.74848485       0.00000000       0.00000000      -0.34809408
2
Properties=species:S:1:pos:R:3:forces:R:3 energy=-3.9196592588043417 pbc="F F F"
Pm       0.00000000       0.00000000       0.00000000       0.00000000       0.00000000       0.33315188
Pm       0.00000000       0.00000000       4.80808081       0.00000000       0.00000000      -0.33315188
2
Properties=species:S:1:pos:R:3:forces:R:3 energy=-3.900236486236465 pbc="F F F"
Pm       0.00000000       0.00000000       0.00000000       0.00000000       0.00000000       0.31870630
Pm       0.00000000       0.00000000       4.86767677       0.00000000       0.00000000      -0.31870630
2
Properties=species:S:1:pos:R:3:forces:R:3 energy=-3.8816495706050165 pbc="F F F"
Pm       0.00000000       0.00000000       0.00000000       0.00000000       0.00000000       0.30529338
Pm       0.00000000       0.00000000       4.92727273       0.00000000       0.00000000      -0.30529338
2
Properties=species:S:1:pos:R:3:forces:R:3 energy=-3.8638226388054804 pbc="F F F"
Pm       0.00000000       0.00000000       0.00000000       0.00000000       0.00000000       0.29313064
Pm       0.00000000       0.00000000       4.98686869       0.00000000       0.00000000      -0.29313064
2
Properties=species:S:1:pos:R:3:forces:R:3 energy=-3.846690102082531 pbc="F F F"
Pm       0.00000000       0.00000000       0.00000000       0.00000000       0.00000000       0.28205743
Pm       0.00000000       0.00000000       5.04646465       0.00000000       0.00000000      -0.28205743
2
Properties=species:S:1:pos:R:3:forces:R:3 energy=-3.8301974639845318 pbc="F F F"
Pm       0.00000000       0.00000000       0.00000000       0.00000000       0.00000000       0.27151793
Pm       0.00000000       0.00000000       5.10606061       0.00000000       0.00000000      -0.27151793
2
Properties=species:S:1:pos:R:3:forces:R:3 energy=-3.81433008264849 pbc="F F F"
Pm       0.00000000       0.00000000       0.00000000       0.00000000       0.00000000       0.26065063
Pm       0.00000000       0.00000000       5.16565657       0.00000000       0.00000000      -0.26065063
2
Properties=species:S:1:pos:R:3:forces:R:3 energy=-3.7991549740788697 pbc="F F F"
Pm       0.00000000       0.00000000       0.00000000       0.00000000       0.00000000       0.24844036
Pm       0.00000000       0.00000000       5.22525253       0.00000000       0.00000000      -0.24844036
2
Properties=species:S:1:pos:R:3:forces:R:3 energy=-3.7847635156608797 pbc="F F F"
Pm       0.00000000       0.00000000       0.00000000       0.00000000       0.00000000       0.23396462
Pm       0.00000000       0.00000000       5.28484848       0.00000000       0.00000000      -0.23396462
2
Properties=species:S:1:pos:R:3:forces:R:3 energy=-3.77132488360041 pbc="F F F"
Pm       0.00000000       0.00000000       0.00000000       0.00000000       0.00000000       0.21659784
Pm       0.00000000       0.00000000       5.34444444       0.00000000       0.00000000      -0.21659784
2
Properties=species:S:1:pos:R:3:forces:R:3 energy=-3.7590057605477716 pbc="F F F"
Pm       0.00000000       0.00000000       0.00000000       0.00000000       0.00000000       0.19621657
Pm       0.00000000       0.00000000       5.40404040       0.00000000       0.00000000      -0.19621657
2
Properties=species:S:1:pos:R:3:forces:R:3 energy=-3.7479855690441792 pbc="F F F"
Pm       0.00000000       0.00000000       0.00000000       0.00000000       0.00000000       0.17326537
Pm       0.00000000       0.00000000       5.46363636       0.00000000       0.00000000      -0.17326537
2
Properties=species:S:1:pos:R:3:forces:R:3 energy=-3.738388627596759 pbc="F F F"
Pm       0.00000000       0.00000000       0.00000000       0.00000000       0.00000000       0.14874746
Pm       0.00000000       0.00000000       5.52323232       0.00000000       0.00000000      -0.14874746
2
Properties=species:S:1:pos:R:3:forces:R:3 energy=-3.7302621844910484 pbc="F F F"
Pm       0.00000000       0.00000000       0.00000000       0.00000000       0.00000000       0.12407696
Pm       0.00000000       0.00000000       5.58282828       0.00000000       0.00000000      -0.12407696
2
Properties=species:S:1:pos:R:3:forces:R:3 energy=-3.723570442319325 pbc="F F F"
Pm       0.00000000       0.00000000       0.00000000       0.00000000       0.00000000       0.10086329
Pm       0.00000000       0.00000000       5.64242424       0.00000000       0.00000000      -0.10086329
2
Properties=species:S:1:pos:R:3:forces:R:3 energy=-3.718180309886662 pbc="F F F"
Pm       0.00000000       0.00000000       0.00000000       0.00000000       0.00000000       0.08061740
Pm       0.00000000       0.00000000       5.70202020       0.00000000       0.00000000      -0.08061740
2
Properties=species:S:1:pos:R:3:forces:R:3 energy=-3.7138793572961837 pbc="F F F"
Pm       0.00000000       0.00000000       0.00000000       0.00000000       0.00000000       0.06453712
Pm       0.00000000       0.00000000       5.76161616       0.00000000       0.00000000      -0.06453712
2
Properties=species:S:1:pos:R:3:forces:R:3 energy=-3.7103957100611846 pbc="F F F"
Pm       0.00000000       0.00000000       0.00000000       0.00000000       0.00000000       0.05319092
Pm       0.00000000       0.00000000       5.82121212       0.00000000       0.00000000      -0.05319092
2
Properties=species:S:1:pos:R:3:forces:R:3 energy=-3.70744860017954 pbc="F F F"
Pm       0.00000000       0.00000000       0.00000000       0.00000000       0.00000000       0.04643997
Pm       0.00000000       0.00000000       5.88080808       0.00000000       0.00000000      -0.04643997
2
Properties=species:S:1:pos:R:3:forces:R:3 energy=-3.7047863737221896 pbc="F F F"
Pm       0.00000000       0.00000000       0.00000000       0.00000000       0.00000000       0.04333282
Pm       0.00000000       0.00000000       5.94040404       0.00000000       0.00000000      -0.04333282
2
Properties=species:S:1:pos:R:3:forces:R:3 energy=-3.7022398459096997 pbc="F F F"
Pm       0.00000000       0.00000000       0.00000000       0.00000000       0.00000000       0.04226183
Pm       0.00000000       0.00000000       6.00000000       0.00000000       0.00000000      -0.04226183
