2
Properties=species:S:1:pos:R:3:forces:R:3 energy=-3288174.7930560885 pbc="F F F"
Pt       0.00000000       0.00000000       0.00000000       0.00000000       0.00000000 25412350.00000000
Pt       0.00000000       0.00000000       0.18000000       0.00000000       0.00000000 -25412350.00000000
2
Properties=species:S:1:pos:R:3:forces:R:3 energy=-1946778.7930560883 pbc="F F F"
Pt       0.00000000       0.00000000       0.00000000       0.00000000       0.00000000 19646936.00000000
Pt       0.00000000       0.00000000       0.23878788       0.00000000       0.00000000 -19646936.00000000
2
Properties=species:S:1:pos:R:3:forces:R:3 energy=-1006923.3555560851 pbc="F F F"
Pt       0.00000000       0.00000000       0.00000000       0.00000000       0.00000000 12371588.00000000
Pt       0.00000000       0.00000000       0.29757576       0.00000000       0.00000000 -12371588.00000000
2
Properties=species:S:1:pos:R:3:forces:R:3 energy=-459583.855556082 pbc="F F F"
Pt       0.00000000       0.00000000       0.00000000       0.00000000       0.00000000 6797175.50000000
Pt       0.00000000       0.00000000       0.35636364       0.00000000       0.00000000 -6797175.50000000
2
Properties=species:S:1:pos:R:3:forces:R:3 energy=-172362.2774310756 pbc="F F F"
Pt       0.00000000       0.00000000       0.00000000       0.00000000       0.00000000 3127487.00000000
Pt       0.00000000       0.00000000       0.41515152       0.00000000       0.00000000 -3127487.00000000
2
Properties=species:S:1:pos:R:3:forces:R:3 energy=-51083.03524356295 pbc="F F F"
Pt       0.00000000       0.00000000       0.00000000       0.00000000       0.00000000 1302963.12500000
Pt       0.00000000       0.00000000       0.47393939       0.00000000       0.00000000 -1302963.12500000
2
Properties=species:S:1:pos:R:3:forces:R:3 energy=-9093.400477912603 pbc="F F F"
Pt       0.00000000       0.00000000       0.00000000       0.00000000       0.00000000  311938.46875000
Pt       0.00000000       0.00000000       0.53272727       0.00000000       0.00000000 -311938.46875000
2
Properties=species:S:1:pos:R:3:forces:R:3 energy=-372.78094051790583 pbc="F F F"
Pt       0.00000000       0.00000000       0.00000000       0.00000000       0.00000000   44347.64843750
Pt       0.00000000       0.00000000       0.59151515       0.00000000       0.00000000  -44347.64843750
2
Properties=species:S:1:pos:R:3:forces:R:3 energy=129.82490976834498 pbc="F F F"
Pt       0.00000000       0.00000000       0.00000000       0.00000000       0.00000000   -3343.92724609
Pt       0.00000000       0.00000000       0.65030303       0.00000000       0.00000000    3343.92724609
2
Properties=species:S:1:pos:R:3:forces:R:3 energy=45.005119992744135 pbc="F F F"
Pt       0.00000000       0.00000000       0.00000000       0.00000000       0.00000000    -508.48367310
Pt       0.00000000       0.00000000       0.70909091       0.00000000       0.00000000     508.48367310
2
Properties=species:S:1:pos:R:3:forces:R:3 energy=27.80046546069955 pbc="F F F"
Pt       0.00000000       0.00000000       0.00000000       0.00000000       0.00000000    -168.90063477
Pt       0.00000000       0.00000000       0.76787879       0.00000000       0.00000000     168.90063477
2
Properties=species:S:1:pos:R:3:forces:R:3 energy=20.75442612649085 pbc="F F F"
Pt       0.00000000       0.00000000       0.00000000       0.00000000       0.00000000     -54.87102127
Pt       0.00000000       0.00000000       0.82666667       0.00000000       0.00000000      54.87102127
2
Properties=species:S:1:pos:R:3:forces:R:3 energy=19.71434544444572 pbc="F F F"
Pt       0.00000000       0.00000000       0.00000000       0.00000000       0.00000000      35.75210190
Pt       0.00000000       0.00000000       0.88545455       0.00000000       0.00000000     -35.75210190
2
Properties=species:S:1:pos:R:3:forces:R:3 energy=27.52179908780791 pbc="F F F"
Pt       0.00000000       0.00000000       0.00000000       0.00000000       0.00000000     260.42395020
Pt       0.00000000       0.00000000       0.94424242       0.00000000       0.00000000    -260.42395020
2
Properties=species:S:1:pos:R:3:forces:R:3 energy=43.48525495641369 pbc="F F F"
Pt       0.00000000       0.00000000       0.00000000       0.00000000       0.00000000     245.38717651
Pt       0.00000000       0.00000000       1.00303030       0.00000000       0.00000000    -245.38717651
2
Properties=species:S:1:pos:R:3:forces:R:3 energy=55.4120365599266 pbc="F F F"
Pt       0.00000000       0.00000000       0.00000000       0.00000000       0.00000000     151.18803406
Pt       0.00000000       0.00000000       1.06181818       0.00000000       0.00000000    -151.18803406
2
Properties=species:S:1:pos:R:3:forces:R:3 energy=60.07634439798837 pbc="F F F"
Pt       0.00000000       0.00000000       0.00000000       0.00000000       0.00000000      -6.80151033
Pt       0.00000000       0.00000000       1.12060606       0.00000000       0.00000000       6.80151033
2
Properties=species:S:1:pos:R:3:forces:R:3 energy=55.27657179930628 pbc="F F F"
Pt       0.00000000       0.00000000       0.00000000       0.00000000       0.00000000    -122.02626038
Pt       0.00000000       0.00000000       1.17939394       0.00000000       0.00000000     122.02626038
2
Properties=species:S:1:pos:R:3:forces:R:3 energy=48.278874095499276 pbc="F F F"
Pt       0.00000000       0.00000000       0.00000000       0.00000000       0.00000000    -141.32963562
Pt       0.00000000       0.00000000       1.23818182       0.00000000       0.00000000     141.32963562
2
Properties=species:S:1:pos:R:3:forces:R:3 energy=38.842803386722956 pbc="F F F"
Pt       0.00000000       0.00000000       0.00000000       0.00000000       0.00000000    -169.10455322
Pt       0.00000000       0.00000000       1.29696970       0.00000000       0.00000000     169.10455322
2
Properties=species:S:1:pos:R:3:forces:R:3 energy=29.089579437867805 pbc="F F F"
Pt       0.00000000       0.00000000       0.00000000       0.00000000       0.00000000    -158.86650085
Pt       0.00000000       0.00000000       1.35575758       0.00000000       0.00000000     158.86650085
2
Properties=species:S:1:pos:R:3:forces:R:3 energy=20.45642010388816 pbc="F F F"
Pt       0.00000000       0.00000000       0.00000000       0.00000000       0.00000000    -132.46415710
Pt       0.00000000       0.00000000       1.41454545       0.00000000       0.00000000     132.46415710
2
Properties=species:S:1:pos:R:3:forces:R:3 energy=13.514285591203791 pbc="F F F"
Pt       0.00000000       0.00000000       0.00000000       0.00000000       0.00000000    -102.87056732
Pt       0.00000000       0.00000000       1.47333333       0.00000000       0.00000000     102.87056732
2
Properties=species:S:1:pos:R:3:forces:R:3 energy=8.362646218930363 pbc="F F F"
Pt       0.00000000       0.00000000       0.00000000       0.00000000       0.00000000     -73.67565918
Pt       0.00000000       0.00000000       1.53212121       0.00000000       0.00000000      73.67565918
2
Properties=species:S:1:pos:R:3:forces:R:3 energy=4.792043873519286 pbc="F F F"
Pt       0.00000000       0.00000000       0.00000000       0.00000000       0.00000000     -48.60494614
Pt       0.00000000       0.00000000       1.59090909       0.00000000       0.00000000      48.60494614
2
Properties=species:S:1:pos:R:3:forces:R:3 energy=2.490825636343256 pbc="F F F"
Pt       0.00000000       0.00000000       0.00000000       0.00000000       0.00000000     -31.25172997
Pt       0.00000000       0.00000000       1.64969697       0.00000000       0.00000000      31.25172997
2
Properties=species:S:1:pos:R:3:forces:R:3 energy=0.9846370263739912 pbc="F F F"
Pt       0.00000000       0.00000000       0.00000000       0.00000000       0.00000000     -20.44102287
Pt       0.00000000       0.00000000       1.70848485       0.00000000       0.00000000      20.44102287
2
Properties=species:S:1:pos:R:3:forces:R:3 energy=0.028754983365583978 pbc="F F F"
Pt       0.00000000       0.00000000       0.00000000       0.00000000       0.00000000     -13.06988811
Pt       0.00000000       0.00000000       1.76727273       0.00000000       0.00000000      13.06988811
2
Properties=species:S:1:pos:R:3:forces:R:3 energy=-0.6640059335440835 pbc="F F F"
Pt       0.00000000       0.00000000       0.00000000       0.00000000       0.00000000     -10.97296429
Pt       0.00000000       0.00000000       1.82606061       0.00000000       0.00000000      10.97296429
2
Properties=species:S:1:pos:R:3:forces:R:3 energy=-1.274456481637342 pbc="F F F"
Pt       0.00000000       0.00000000       0.00000000       0.00000000       0.00000000     -10.07565117
Pt       0.00000000       0.00000000       1.88484848       0.00000000       0.00000000      10.07565117
2
Properties=species:S:1:pos:R:3:forces:R:3 energy=-1.865366582423956 pbc="F F F"
Pt       0.00000000       0.00000000       0.00000000       0.00000000       0.00000000      -9.95394516
Pt       0.00000000       0.00000000       1.94363636       0.00000000       0.00000000       9.95394516
2
Properties=species:S:1:pos:R:3:forces:R:3 energy=-2.445103131128328 pbc="F F F"
Pt       0.00000000       0.00000000       0.00000000       0.00000000       0.00000000      -9.83598709
Pt       0.00000000       0.00000000       2.00242424       0.00000000       0.00000000       9.83598709
2
Properties=species:S:1:pos:R:3:forces:R:3 energy=-3.0229214798105315 pbc="F F F"
Pt       0.00000000       0.00000000       0.00000000       0.00000000       0.00000000      -9.72339249
Pt       0.00000000       0.00000000       2.06121212       0.00000000       0.00000000       9.72339249
2
Properties=species:S:1:pos:R:3:forces:R:3 energy=-3.567625883048772 pbc="F F F"
Pt       0.00000000       0.00000000       0.00000000       0.00000000       0.00000000      -8.61383438
Pt       0.00000000       0.00000000       2.12000000       0.00000000       0.00000000       8.61383438
2
Properties=species:S:1:pos:R:3:forces:R:3 energy=-4.022998566888681 pbc="F F F"
Pt       0.00000000       0.00000000       0.00000000       0.00000000       0.00000000      -6.86951017
Pt       0.00000000       0.00000000       2.17878788       0.00000000       0.00000000       6.86951017
2
Properties=species:S:1:pos:R:3:forces:R:3 energy=-4.376200411118191 pbc="F F F"
Pt       0.00000000       0.00000000       0.00000000       0.00000000       0.00000000      -5.14264488
Pt       0.00000000       0.00000000       2.23757576       0.00000000       0.00000000       5.14264488
2
Properties=species:S:1:pos:R:3:forces:R:3 energy=-4.628375498696645 pbc="F F F"
Pt       0.00000000       0.00000000       0.00000000       0.00000000       0.00000000      -3.44961977
Pt       0.00000000       0.00000000       2.29636364       0.00000000       0.00000000       3.44961977
2
Properties=species:S:1:pos:R:3:forces:R:3 energy=-4.784052962931111 pbc="F F F"
Pt       0.00000000       0.00000000       0.00000000       0.00000000       0.00000000      -1.88693082
Pt       0.00000000       0.00000000       2.35515152       0.00000000       0.00000000       1.88693082
2
Properties=species:S:1:pos:R:3:forces:R:3 energy=-4.857649968775191 pbc="F F F"
Pt       0.00000000       0.00000000       0.00000000       0.00000000       0.00000000      -0.68441337
Pt       0.00000000       0.00000000       2.41393939       0.00000000       0.00000000       0.68441337
2
Properties=species:S:1:pos:R:3:forces:R:3 energy=-4.8714074180870455 pbc="F F F"
Pt       0.00000000       0.00000000       0.00000000       0.00000000       0.00000000       0.16353832
Pt       0.00000000       0.00000000       2.47272727       0.00000000       0.00000000      -0.16353832
2
Properties=species:S:1:pos:R:3:forces:R:3 energy=-4.843680388551521 pbc="F F F"
Pt       0.00000000       0.00000000       0.00000000       0.00000000       0.00000000       0.74698347
Pt       0.00000000       0.00000000       2.53151515       0.00000000       0.00000000      -0.74698347
2
Properties=species:S:1:pos:R:3:forces:R:3 energy=-4.78667193743648 pbc="F F F"
Pt       0.00000000       0.00000000       0.00000000       0.00000000       0.00000000       1.16633606
Pt       0.00000000       0.00000000       2.59030303       0.00000000       0.00000000      -1.16633606
2
Properties=species:S:1:pos:R:3:forces:R:3 energy=-4.709781568520895 pbc="F F F"
Pt       0.00000000       0.00000000       0.00000000       0.00000000       0.00000000       1.42297518
Pt       0.00000000       0.00000000       2.64909091       0.00000000       0.00000000      -1.42297518
2
Properties=species:S:1:pos:R:3:forces:R:3 energy=-4.622094844715153 pbc="F F F"
Pt       0.00000000       0.00000000       0.00000000       0.00000000       0.00000000       1.54062688
Pt       0.00000000       0.00000000       2.70787879       0.00000000       0.00000000      -1.54062688
2
Properties=species:S:1:pos:R:3:forces:R:3 energy=-4.530533296280408 pbc="F F F"
Pt       0.00000000       0.00000000       0.00000000       0.00000000       0.00000000       1.56192601
Pt       0.00000000       0.00000000       2.76666667       0.00000000       0.00000000      -1.56192601
2
Properties=species:S:1:pos:R:3:forces:R:3 energy=-4.439477505775671 pbc="F F F"
Pt       0.00000000       0.00000000       0.00000000       0.00000000       0.00000000       1.53004825
Pt       0.00000000       0.00000000       2.82545455       0.00000000       0.00000000      -1.53004825
2
Properties=species:S:1:pos:R:3:forces:R:3 energy=-4.351179438540894 pbc="F F F"
Pt       0.00000000       0.00000000       0.00000000       0.00000000       0.00000000       1.46959662
Pt       0.00000000       0.00000000       2.88424242       0.00000000       0.00000000      -1.46959662
2
Properties=species:S:1:pos:R:3:forces:R:3 energy=-4.267160225119925 pbc="F F F"
Pt       0.00000000       0.00000000       0.00000000       0.00000000       0.00000000       1.38545442
Pt       0.00000000       0.00000000       2.94303030       0.00000000       0.00000000      -1.38545442
2
Properties=species:S:1:pos:R:3:forces:R:3 energy=-4.188472697036699 pbc="F F F"
Pt       0.00000000       0.00000000       0.00000000       0.00000000       0.00000000       1.29196310
Pt       0.00000000       0.00000000       3.00181818       0.00000000       0.00000000      -1.29196310
2
Properties=species:S:1:pos:R:3:forces:R:3 energy=-4.115046196446391 pbc="F F F"
Pt       0.00000000       0.00000000       0.00000000       0.00000000       0.00000000       1.20862532
Pt       0.00000000       0.00000000       3.06060606       0.00000000       0.00000000      -1.20862532
2
Properties=species:S:1:pos:R:3:forces:R:3 energy=-4.046066239149745 pbc="F F F"
Pt       0.00000000       0.00000000       0.00000000       0.00000000       0.00000000       1.14047766
Pt       0.00000000       0.00000000       3.11939394       0.00000000       0.00000000      -1.14047766
2
Properties=species:S:1:pos:R:3:forces:R:3 energy=-3.980704348422713 pbc="F F F"
Pt       0.00000000       0.00000000       0.00000000       0.00000000       0.00000000       1.08518875
Pt       0.00000000       0.00000000       3.17818182       0.00000000       0.00000000      -1.08518875
2
Properties=species:S:1:pos:R:3:forces:R:3 energy=-3.9182437828194043 pbc="F F F"
Pt       0.00000000       0.00000000       0.00000000       0.00000000       0.00000000       1.04139125
Pt       0.00000000       0.00000000       3.23696970       0.00000000       0.00000000      -1.04139125
2
Properties=species:S:1:pos:R:3:forces:R:3 energy=-3.858131595289687 pbc="F F F"
Pt       0.00000000       0.00000000       0.00000000       0.00000000       0.00000000       1.00424337
Pt       0.00000000       0.00000000       3.29575758       0.00000000       0.00000000      -1.00424337
2
Properties=species:S:1:pos:R:3:forces:R:3 energy=-3.800189276329861 pbc="F F F"
Pt       0.00000000       0.00000000       0.00000000       0.00000000       0.00000000       0.96619880
Pt       0.00000000       0.00000000       3.35454545       0.00000000       0.00000000      -0.96619880
2
Properties=species:S:1:pos:R:3:forces:R:3 energy=-3.7446627458565365 pbc="F F F"
Pt       0.00000000       0.00000000       0.00000000       0.00000000       0.00000000       0.92145932
Pt       0.00000000       0.00000000       3.41333333       0.00000000       0.00000000      -0.92145932
2
Properties=species:S:1:pos:R:3:forces:R:3 energy=-3.692015077930458 pbc="F F F"
Pt       0.00000000       0.00000000       0.00000000       0.00000000       0.00000000       0.86830950
Pt       0.00000000       0.00000000       3.47212121       0.00000000       0.00000000      -0.86830950
2
Properties=species:S:1:pos:R:3:forces:R:3 energy=-3.6426995547795977 pbc="F F F"
Pt       0.00000000       0.00000000       0.00000000       0.00000000       0.00000000       0.80861461
Pt       0.00000000       0.00000000       3.53090909       0.00000000       0.00000000      -0.80861461
2
Properties=species:S:1:pos:R:3:forces:R:3 energy=-3.597010925284018 pbc="F F F"
Pt       0.00000000       0.00000000       0.00000000       0.00000000       0.00000000       0.74535507
Pt       0.00000000       0.00000000       3.58969697       0.00000000       0.00000000      -0.74535507
2
Properties=species:S:1:pos:R:3:forces:R:3 energy=-3.5550911903782123 pbc="F F F"
Pt       0.00000000       0.00000000       0.00000000       0.00000000       0.00000000       0.68072778
Pt       0.00000000       0.00000000       3.64848485       0.00000000       0.00000000      -0.68072778
2
Properties=species:S:1:pos:R:3:forces:R:3 energy=-3.516975395257405 pbc="F F F"
Pt       0.00000000       0.00000000       0.00000000       0.00000000       0.00000000       0.61603183
Pt       0.00000000       0.00000000       3.70727273       0.00000000       0.00000000      -0.61603183
2
Properties=species:S:1:pos:R:3:forces:R:3 energy=-3.482639875461726 pbc="F F F"
Pt       0.00000000       0.00000000       0.00000000       0.00000000       0.00000000       0.55233669
Pt       0.00000000       0.00000000       3.76606061       0.00000000       0.00000000      -0.55233669
2
Properties=species:S:1:pos:R:3:forces:R:3 energy=-3.45199177913002 pbc="F F F"
Pt       0.00000000       0.00000000       0.00000000       0.00000000       0.00000000       0.49081883
Pt       0.00000000       0.00000000       3.82484848       0.00000000       0.00000000      -0.49081883
2
Properties=species:S:1:pos:R:3:forces:R:3 energy=-3.4248647722976 pbc="F F F"
Pt       0.00000000       0.00000000       0.00000000       0.00000000       0.00000000       0.43261552
Pt       0.00000000       0.00000000       3.88363636       0.00000000       0.00000000      -0.43261552
2
Properties=species:S:1:pos:R:3:forces:R:3 energy=-3.4010448768018104 pbc="F F F"
Pt       0.00000000       0.00000000       0.00000000       0.00000000       0.00000000       0.37857717
Pt       0.00000000       0.00000000       3.94242424       0.00000000       0.00000000      -0.37857717
2
Properties=species:S:1:pos:R:3:forces:R:3 energy=-3.3802642048747065 pbc="F F F"
Pt       0.00000000       0.00000000       0.00000000       0.00000000       0.00000000       0.32916266
Pt       0.00000000       0.00000000       4.00121212       0.00000000       0.00000000      -0.32916266
2
Properties=species:S:1:pos:R:3:forces:R:3 energy=-3.362249211562873 pbc="F F F"
Pt       0.00000000       0.00000000       0.00000000       0.00000000       0.00000000       0.28452617
Pt       0.00000000       0.00000000       4.06000000       0.00000000       0.00000000      -0.28452617
2
Properties=species:S:1:pos:R:3:forces:R:3 energy=-3.3467181648218154 pbc="F F F"
Pt       0.00000000       0.00000000       0.00000000       0.00000000       0.00000000       0.24465740
Pt       0.00000000       0.00000000       4.11878788       0.00000000       0.00000000      -0.24465740
2
Properties=species:S:1:pos:R:3:forces:R:3 energy=-3.33339172146464 pbc="F F F"
Pt       0.00000000       0.00000000       0.00000000       0.00000000       0.00000000       0.20945269
Pt       0.00000000       0.00000000       4.17757576       0.00000000       0.00000000      -0.20945269
2
Properties=species:S:1:pos:R:3:forces:R:3 energy=-3.3220028298685977 pbc="F F F"
Pt       0.00000000       0.00000000       0.00000000       0.00000000       0.00000000       0.17872725
Pt       0.00000000       0.00000000       4.23636364       0.00000000       0.00000000      -0.17872725
2
Properties=species:S:1:pos:R:3:forces:R:3 energy=-3.3122957256156167 pbc="F F F"
Pt       0.00000000       0.00000000       0.00000000       0.00000000       0.00000000       0.15219286
Pt       0.00000000       0.00000000       4.29515152       0.00000000       0.00000000      -0.15219286
2
Properties=species:S:1:pos:R:3:forces:R:3 energy=-3.304034015549234 pbc="F F F"
Pt       0.00000000       0.00000000       0.00000000       0.00000000       0.00000000       0.12945904
Pt       0.00000000       0.00000000       4.35393939       0.00000000       0.00000000      -0.12945904
2
Properties=species:S:1:pos:R:3:forces:R:3 energy=-3.297008126603265 pbc="F F F"
Pt       0.00000000       0.00000000       0.00000000       0.00000000       0.00000000       0.11005730
Pt       0.00000000       0.00000000       4.41272727       0.00000000       0.00000000      -0.11005730
2
Properties=species:S:1:pos:R:3:forces:R:3 energy=-3.2910377153301744 pbc="F F F"
Pt       0.00000000       0.00000000       0.00000000       0.00000000       0.00000000       0.09349835
Pt       0.00000000       0.00000000       4.47151515       0.00000000       0.00000000      -0.09349835
2
Properties=species:S:1:pos:R:3:forces:R:3 energy=-3.2859681621463905 pbc="F F F"
Pt       0.00000000       0.00000000       0.00000000       0.00000000       0.00000000       0.07932693
Pt       0.00000000       0.00000000       4.53030303       0.00000000       0.00000000      -0.07932693
2
Properties=species:S:1:pos:R:3:forces:R:3 energy=-3.281671000652134 pbc="F F F"
Pt       0.00000000       0.00000000       0.00000000       0.00000000       0.00000000       0.06716167
Pt       0.00000000       0.00000000       4.58909091       0.00000000       0.00000000      -0.06716167
2
Properties=species:S:1:pos:R:3:forces:R:3 energy=-3.2780395595727287 pbc="F F F"
Pt       0.00000000       0.00000000       0.00000000       0.00000000       0.00000000       0.05671018
Pt       0.00000000       0.00000000       4.64787879       0.00000000       0.00000000      -0.05671018
2
Properties=species:S:1:pos:R:3:forces:R:3 energy=-3.2749769182845827 pbc="F F F"
Pt       0.00000000       0.00000000       0.00000000       0.00000000       0.00000000       0.04775875
Pt       0.00000000       0.00000000       4.70666667       0.00000000       0.00000000      -0.04775875
2
Properties=species:S:1:pos:R:3:forces:R:3 energy=-3.272395887808254 pbc="F F F"
Pt       0.00000000       0.00000000       0.00000000       0.00000000       0.00000000       0.04015226
Pt       0.00000000       0.00000000       4.76545455       0.00000000       0.00000000      -0.04015226
2
Properties=species:S:1:pos:R:3:forces:R:3 energy=-3.2702294410373125 pbc="F F F"
Pt       0.00000000       0.00000000       0.00000000       0.00000000       0.00000000       0.03377140
Pt       0.00000000       0.00000000       4.82424242       0.00000000       0.00000000      -0.03377140
2
Properties=species:S:1:pos:R:3:forces:R:3 energy=-3.2684039845149018 pbc="F F F"
Pt       0.00000000       0.00000000       0.00000000       0.00000000       0.00000000       0.02852075
Pt       0.00000000       0.00000000       4.88303030       0.00000000       0.00000000      -0.02852075
2
Properties=species:S:1:pos:R:3:forces:R:3 energy=-3.266857883806911 pbc="F F F"
Pt       0.00000000       0.00000000       0.00000000       0.00000000       0.00000000       0.02431551
Pt       0.00000000       0.00000000       4.94181818       0.00000000       0.00000000      -0.02431551
2
Properties=species:S:1:pos:R:3:forces:R:3 energy=-3.2655248042957497 pbc="F F F"
Pt       0.00000000       0.00000000       0.00000000       0.00000000       0.00000000       0.02107588
Pt       0.00000000       0.00000000       5.00060606       0.00000000       0.00000000      -0.02107588
2
Properties=species:S:1:pos:R:3:forces:R:3 energy=-3.264360433068137 pbc="F F F"
Pt       0.00000000       0.00000000       0.00000000       0.00000000       0.00000000       0.01871045
Pt       0.00000000       0.00000000       5.05939394       0.00000000       0.00000000      -0.01871045
2
Properties=species:S:1:pos:R:3:forces:R:3 energy=-3.2633114338146667 pbc="F F F"
Pt       0.00000000       0.00000000       0.00000000       0.00000000       0.00000000       0.01710458
Pt       0.00000000       0.00000000       5.11818182       0.00000000       0.00000000      -0.01710458
2
Properties=species:S:1:pos:R:3:forces:R:3 energy=-3.262336486269477 pbc="F F F"
Pt       0.00000000       0.00000000       0.00000000       0.00000000       0.00000000       0.01611152
Pt       0.00000000       0.00000000       5.17696970       0.00000000       0.00000000      -0.01611152
2
Properties=species:S:1:pos:R:3:forces:R:3 energy=-3.261408229988838 pbc="F F F"
Pt       0.00000000       0.00000000       0.00000000       0.00000000       0.00000000       0.01555694
Pt       0.00000000       0.00000000       5.23575758       0.00000000       0.00000000      -0.01555694
2
Properties=species:S:1:pos:R:3:forces:R:3 energy=-3.260503707017144 pbc="F F F"
Pt       0.00000000       0.00000000       0.00000000       0.00000000       0.00000000       0.01525194
Pt       0.00000000       0.00000000       5.29454545       0.00000000       0.00000000      -0.01525194
2
Properties=species:S:1:pos:R:3:forces:R:3 energy=-3.259612087108064 pbc="F F F"
Pt       0.00000000       0.00000000       0.00000000       0.00000000       0.00000000       0.01501563
Pt       0.00000000       0.00000000       5.35333333       0.00000000       0.00000000      -0.01501563
2
Properties=species:S:1:pos:R:3:forces:R:3 energy=-3.258740385810663 pbc="F F F"
Pt       0.00000000       0.00000000       0.00000000       0.00000000       0.00000000       0.01469821
Pt       0.00000000       0.00000000       5.41212121       0.00000000       0.00000000      -0.01469821
2
Properties=species:S:1:pos:R:3:forces:R:3 energy=-3.2578901263751385 pbc="F F F"
Pt       0.00000000       0.00000000       0.00000000       0.00000000       0.00000000       0.01419844
Pt       0.00000000       0.00000000       5.47090909       0.00000000       0.00000000      -0.01419844
2
Properties=species:S:1:pos:R:3:forces:R:3 energy=-3.257075047668028 pbc="F F F"
Pt       0.00000000       0.00000000       0.00000000       0.00000000       0.00000000       0.01347451
Pt       0.00000000       0.00000000       5.52969697       0.00000000       0.00000000      -0.01347451
2
Properties=species:S:1:pos:R:3:forces:R:3 energy=-3.2563096798792994 pbc="F F F"
Pt       0.00000000       0.00000000       0.00000000       0.00000000       0.00000000       0.01254228
Pt       0.00000000       0.00000000       5.58848485       0.00000000       0.00000000      -0.01254228
2
Properties=species:S:1:pos:R:3:forces:R:3 energy=-3.255602691768849 pbc="F F F"
Pt       0.00000000       0.00000000       0.00000000       0.00000000       0.00000000       0.01146693
Pt       0.00000000       0.00000000       5.64727273       0.00000000       0.00000000      -0.01146693
2
Properties=species:S:1:pos:R:3:forces:R:3 energy=-3.254961689132391 pbc="F F F"
Pt       0.00000000       0.00000000       0.00000000       0.00000000       0.00000000       0.01034411
Pt       0.00000000       0.00000000       5.70606061       0.00000000       0.00000000      -0.01034411
2
Properties=species:S:1:pos:R:3:forces:R:3 energy=-3.254385147375592 pbc="F F F"
Pt       0.00000000       0.00000000       0.00000000       0.00000000       0.00000000       0.00927881
Pt       0.00000000       0.00000000       5.76484848       0.00000000       0.00000000      -0.00927881
2
Properties=species:S:1:pos:R:3:forces:R:3 energy=-3.2538671933488956 pbc="F F F"
Pt       0.00000000       0.00000000       0.00000000       0.00000000       0.00000000       0.00835940
Pt       0.00000000       0.00000000       5.82363636       0.00000000       0.00000000      -0.00835940
2
Properties=species:S:1:pos:R:3:forces:R:3 energy=-3.2533990414026874 pbc="F F F"
Pt       0.00000000       0.00000000       0.00000000       0.00000000       0.00000000       0.00763334
Pt       0.00000000       0.00000000       5.88242424       0.00000000       0.00000000      -0.00763334
2
Properties=species:S:1:pos:R:3:forces:R:3 energy=-3.2529642749089094 pbc="F F F"
Pt       0.00000000       0.00000000       0.00000000       0.00000000       0.00000000       0.00709233
Pt       0.00000000       0.00000000       5.94121212       0.00000000       0.00000000      -0.00709233
2
Properties=species:S:1:pos:R:3:forces:R:3 energy=-3.252561713853811 pbc="F F F"
Pt       0.00000000       0.00000000       0.00000000       0.00000000       0.00000000       0.00667370
Pt       0.00000000       0.00000000       6.00000000       0.00000000       0.00000000      -0.00667370
