2
Properties=species:S:1:pos:R:3:forces:R:3 energy=3133304.2040981557 pbc="F F F"
Re       0.00000000       0.00000000       0.00000000       0.00000000       0.00000000 -22996074.00000000
Re       0.00000000       0.00000000       0.18000000       0.00000000       0.00000000 22996074.00000000
2
Properties=species:S:1:pos:R:3:forces:R:3 energy=1845776.0790981557 pbc="F F F"
Re       0.00000000       0.00000000       0.00000000       0.00000000       0.00000000 -19473702.00000000
Re       0.00000000       0.00000000       0.23878788       0.00000000       0.00000000 19473702.00000000
2
Properties=species:S:1:pos:R:3:forces:R:3 energy=888730.0790981557 pbc="F F F"
Re       0.00000000       0.00000000       0.00000000       0.00000000       0.00000000 -12842691.00000000
Re       0.00000000       0.00000000       0.29757576       0.00000000       0.00000000 12842691.00000000
2
Properties=species:S:1:pos:R:3:forces:R:3 energy=366199.9853481557 pbc="F F F"
Re       0.00000000       0.00000000       0.00000000       0.00000000       0.00000000 -5949444.50000000
Re       0.00000000       0.00000000       0.35636364       0.00000000       0.00000000 5949444.50000000
2
Properties=species:S:1:pos:R:3:forces:R:3 energy=131700.87597316204 pbc="F F F"
Re       0.00000000       0.00000000       0.00000000       0.00000000       0.00000000 -2503393.00000000
Re       0.00000000       0.00000000       0.41515152       0.00000000       0.00000000 2503393.00000000
2
Properties=species:S:1:pos:R:3:forces:R:3 energy=44701.708004418375 pbc="F F F"
Re       0.00000000       0.00000000       0.00000000       0.00000000       0.00000000 -749402.68750000
Re       0.00000000       0.00000000       0.47393939       0.00000000       0.00000000  749402.68750000
2
Properties=species:S:1:pos:R:3:forces:R:3 energy=15907.524410681048 pbc="F F F"
Re       0.00000000       0.00000000       0.00000000       0.00000000       0.00000000 -300381.46875000
Re       0.00000000       0.00000000       0.53272727       0.00000000       0.00000000  300381.46875000
2
Properties=species:S:1:pos:R:3:forces:R:3 energy=5294.055660703223 pbc="F F F"
Re       0.00000000       0.00000000       0.00000000       0.00000000       0.00000000  -98749.11718750
Re       0.00000000       0.00000000       0.59151515       0.00000000       0.00000000   98749.11718750
2
Properties=species:S:1:pos:R:3:forces:R:3 energy=1716.2498746115923 pbc="F F F"
Re       0.00000000       0.00000000       0.00000000       0.00000000       0.00000000  -32118.51562500
Re       0.00000000       0.00000000       0.65030303       0.00000000       0.00000000   32118.51562500
2
Properties=species:S:1:pos:R:3:forces:R:3 energy=708.6145597272069 pbc="F F F"
Re       0.00000000       0.00000000       0.00000000       0.00000000       0.00000000   -9419.32324219
Re       0.00000000       0.00000000       0.70909091       0.00000000       0.00000000    9419.32324219
2
Properties=species:S:1:pos:R:3:forces:R:3 energy=332.0077482924685 pbc="F F F"
Re       0.00000000       0.00000000       0.00000000       0.00000000       0.00000000   -4314.33886719
Re       0.00000000       0.00000000       0.76787879       0.00000000       0.00000000    4314.33886719
2
Properties=species:S:1:pos:R:3:forces:R:3 energy=158.4405792423995 pbc="F F F"
Re       0.00000000       0.00000000       0.00000000       0.00000000       0.00000000   -1742.42065430
Re       0.00000000       0.00000000       0.82666667       0.00000000       0.00000000    1742.42065430
2
Properties=species:S:1:pos:R:3:forces:R:3 energy=90.38177206258977 pbc="F F F"
Re       0.00000000       0.00000000       0.00000000       0.00000000       0.00000000    -735.64105225
Re       0.00000000       0.00000000       0.88545455       0.00000000       0.00000000     735.64105225
2
Properties=species:S:1:pos:R:3:forces:R:3 energy=57.30985002960856 pbc="F F F"
Re       0.00000000       0.00000000       0.00000000       0.00000000       0.00000000    -436.41793823
Re       0.00000000       0.00000000       0.94424242       0.00000000       0.00000000     436.41793823
2
Properties=species:S:1:pos:R:3:forces:R:3 energy=40.87382287655611 pbc="F F F"
Re       0.00000000       0.00000000       0.00000000       0.00000000       0.00000000    -248.29928589
Re       0.00000000       0.00000000       1.00303030       0.00000000       0.00000000     248.29928589
2
Properties=species:S:1:pos:R:3:forces:R:3 energy=27.81385442870775 pbc="F F F"
Re       0.00000000       0.00000000       0.00000000       0.00000000       0.00000000    -182.32041931
Re       0.00000000       0.00000000       1.06181818       0.00000000       0.00000000     182.32041931
2
Properties=species:S:1:pos:R:3:forces:R:3 energy=18.224404264104404 pbc="F F F"
Re       0.00000000       0.00000000       0.00000000       0.00000000       0.00000000    -155.31367493
Re       0.00000000       0.00000000       1.12060606       0.00000000       0.00000000     155.31367493
2
Properties=species:S:1:pos:R:3:forces:R:3 energy=9.280195085933084 pbc="F F F"
Re       0.00000000       0.00000000       0.00000000       0.00000000       0.00000000    -146.67541504
Re       0.00000000       0.00000000       1.17939394       0.00000000       0.00000000     146.67541504
2
Properties=species:S:1:pos:R:3:forces:R:3 energy=2.1297350199461764 pbc="F F F"
Re       0.00000000       0.00000000       0.00000000       0.00000000       0.00000000     -96.10088348
Re       0.00000000       0.00000000       1.23818182       0.00000000       0.00000000      96.10088348
2
Properties=species:S:1:pos:R:3:forces:R:3 energy=-2.7373404061383986 pbc="F F F"
Re       0.00000000       0.00000000       0.00000000       0.00000000       0.00000000     -72.18247986
Re       0.00000000       0.00000000       1.29696970       0.00000000       0.00000000      72.18247986
2
Properties=species:S:1:pos:R:3:forces:R:3 energy=-6.243331464541494 pbc="F F F"
Re       0.00000000       0.00000000       0.00000000       0.00000000       0.00000000     -49.03696823
Re       0.00000000       0.00000000       1.35575758       0.00000000       0.00000000      49.03696823
2
Properties=species:S:1:pos:R:3:forces:R:3 energy=-8.71345055470525 pbc="F F F"
Re       0.00000000       0.00000000       0.00000000       0.00000000       0.00000000     -34.89908600
Re       0.00000000       0.00000000       1.41454545       0.00000000       0.00000000      34.89908600
2
Properties=species:S:1:pos:R:3:forces:R:3 energy=-10.354142321890416 pbc="F F F"
Re       0.00000000       0.00000000       0.00000000       0.00000000       0.00000000     -21.36889839
Re       0.00000000       0.00000000       1.47333333       0.00000000       0.00000000      21.36889839
2
Properties=species:S:1:pos:R:3:forces:R:3 energy=-11.27483125262331 pbc="F F F"
Re       0.00000000       0.00000000       0.00000000       0.00000000       0.00000000     -10.68095684
Re       0.00000000       0.00000000       1.53212121       0.00000000       0.00000000      10.68095684
2
Properties=species:S:1:pos:R:3:forces:R:3 energy=-11.719860984156087 pbc="F F F"
Re       0.00000000       0.00000000       0.00000000       0.00000000       0.00000000      -5.20633078
Re       0.00000000       0.00000000       1.59090909       0.00000000       0.00000000       5.20633078
2
Properties=species:S:1:pos:R:3:forces:R:3 energy=-11.92901749349764 pbc="F F F"
Re       0.00000000       0.00000000       0.00000000       0.00000000       0.00000000      -2.09116793
Re       0.00000000       0.00000000       1.64969697       0.00000000       0.00000000       2.09116793
2
Properties=species:S:1:pos:R:3:forces:R:3 energy=-12.001133852083123 pbc="F F F"
Re       0.00000000       0.00000000       0.00000000       0.00000000       0.00000000      -0.61345237
Re       0.00000000       0.00000000       1.70848485       0.00000000       0.00000000       0.61345237
2
Properties=species:S:1:pos:R:3:forces:R:3 energy=-12.019148944932521 pbc="F F F"
Re       0.00000000       0.00000000       0.00000000       0.00000000       0.00000000      -0.19681516
Re       0.00000000       0.00000000       1.76727273       0.00000000       0.00000000       0.19681516
2
Properties=species:S:1:pos:R:3:forces:R:3 energy=-12.075880930868394 pbc="F F F"
Re       0.00000000       0.00000000       0.00000000       0.00000000       0.00000000      -1.91681623
Re       0.00000000       0.00000000       1.82606061       0.00000000       0.00000000       1.91681623
2
Properties=species:S:1:pos:R:3:forces:R:3 energy=-12.202815291419164 pbc="F F F"
Re       0.00000000       0.00000000       0.00000000       0.00000000       0.00000000      -2.43361115
Re       0.00000000       0.00000000       1.88484848       0.00000000       0.00000000       2.43361115
2
Properties=species:S:1:pos:R:3:forces:R:3 energy=-12.362016050371343 pbc="F F F"
Re       0.00000000       0.00000000       0.00000000       0.00000000       0.00000000      -2.73675656
Re       0.00000000       0.00000000       1.94363636       0.00000000       0.00000000       2.73675656
2
Properties=species:S:1:pos:R:3:forces:R:3 energy=-12.506278445487718 pbc="F F F"
Re       0.00000000       0.00000000       0.00000000       0.00000000       0.00000000      -2.13562202
Re       0.00000000       0.00000000       2.00242424       0.00000000       0.00000000       2.13562202
2
Properties=species:S:1:pos:R:3:forces:R:3 energy=-12.611266529871187 pbc="F F F"
Re       0.00000000       0.00000000       0.00000000       0.00000000       0.00000000      -1.37357628
Re       0.00000000       0.00000000       2.06121212       0.00000000       0.00000000       1.37357628
2
Properties=species:S:1:pos:R:3:forces:R:3 energy=-12.65898915485967 pbc="F F F"
Re       0.00000000       0.00000000       0.00000000       0.00000000       0.00000000      -0.17385820
Re       0.00000000       0.00000000       2.12000000       0.00000000       0.00000000       0.17385820
2
Properties=species:S:1:pos:R:3:forces:R:3 energy=-12.627295320290804 pbc="F F F"
Re       0.00000000       0.00000000       0.00000000       0.00000000       0.00000000       1.21055007
Re       0.00000000       0.00000000       2.17878788       0.00000000       0.00000000      -1.21055007
2
Properties=species:S:1:pos:R:3:forces:R:3 energy=-12.523213031541598 pbc="F F F"
Re       0.00000000       0.00000000       0.00000000       0.00000000       0.00000000       2.28882074
Re       0.00000000       0.00000000       2.23757576       0.00000000       0.00000000      -2.28882074
2
Properties=species:S:1:pos:R:3:forces:R:3 energy=-12.366350746779162 pbc="F F F"
Re       0.00000000       0.00000000       0.00000000       0.00000000       0.00000000       2.96487999
Re       0.00000000       0.00000000       2.29636364       0.00000000       0.00000000      -2.96487999
2
Properties=species:S:1:pos:R:3:forces:R:3 energy=-12.179578391330987 pbc="F F F"
Re       0.00000000       0.00000000       0.00000000       0.00000000       0.00000000       3.38686323
Re       0.00000000       0.00000000       2.35515152       0.00000000       0.00000000      -3.38686323
2
Properties=species:S:1:pos:R:3:forces:R:3 energy=-11.968763257514544 pbc="F F F"
Re       0.00000000       0.00000000       0.00000000       0.00000000       0.00000000       3.76498008
Re       0.00000000       0.00000000       2.41393939       0.00000000       0.00000000      -3.76498008
2
Properties=species:S:1:pos:R:3:forces:R:3 energy=-11.740451138495349 pbc="F F F"
Re       0.00000000       0.00000000       0.00000000       0.00000000       0.00000000       3.96390772
Re       0.00000000       0.00000000       2.47272727       0.00000000       0.00000000      -3.96390772
2
Properties=species:S:1:pos:R:3:forces:R:3 energy=-11.506990061146313 pbc="F F F"
Re       0.00000000       0.00000000       0.00000000       0.00000000       0.00000000       3.95311427
Re       0.00000000       0.00000000       2.53151515       0.00000000       0.00000000      -3.95311427
2
Properties=species:S:1:pos:R:3:forces:R:3 energy=-11.27762310239051 pbc="F F F"
Re       0.00000000       0.00000000       0.00000000       0.00000000       0.00000000       3.83519816
Re       0.00000000       0.00000000       2.59030303       0.00000000       0.00000000      -3.83519816
2
Properties=species:S:1:pos:R:3:forces:R:3 energy=-11.05786521615447 pbc="F F F"
Re       0.00000000       0.00000000       0.00000000       0.00000000       0.00000000       3.62810588
Re       0.00000000       0.00000000       2.64909091       0.00000000       0.00000000      -3.62810588
2
Properties=species:S:1:pos:R:3:forces:R:3 energy=-10.852051121048715 pbc="F F F"
Re       0.00000000       0.00000000       0.00000000       0.00000000       0.00000000       3.36906719
Re       0.00000000       0.00000000       2.70787879       0.00000000       0.00000000      -3.36906719
2
Properties=species:S:1:pos:R:3:forces:R:3 energy=-10.661976589995081 pbc="F F F"
Re       0.00000000       0.00000000       0.00000000       0.00000000       0.00000000       3.09866309
Re       0.00000000       0.00000000       2.76666667       0.00000000       0.00000000      -3.09866309
2
Properties=species:S:1:pos:R:3:forces:R:3 energy=-10.487145210482016 pbc="F F F"
Re       0.00000000       0.00000000       0.00000000       0.00000000       0.00000000       2.85672379
Re       0.00000000       0.00000000       2.82545455       0.00000000       0.00000000      -2.85672379
2
Properties=species:S:1:pos:R:3:forces:R:3 energy=-10.325223621042527 pbc="F F F"
Re       0.00000000       0.00000000       0.00000000       0.00000000       0.00000000       2.65791893
Re       0.00000000       0.00000000       2.88424242       0.00000000       0.00000000      -2.65791893
2
Properties=species:S:1:pos:R:3:forces:R:3 energy=-10.174148138525243 pbc="F F F"
Re       0.00000000       0.00000000       0.00000000       0.00000000       0.00000000       2.48468614
Re       0.00000000       0.00000000       2.94303030       0.00000000       0.00000000      -2.48468614
2
Properties=species:S:1:pos:R:3:forces:R:3 energy=-10.03274798430662 pbc="F F F"
Re       0.00000000       0.00000000       0.00000000       0.00000000       0.00000000       2.32911325
Re       0.00000000       0.00000000       3.00181818       0.00000000       0.00000000      -2.32911325
2
Properties=species:S:1:pos:R:3:forces:R:3 energy=-9.899922343785871 pbc="F F F"
Re       0.00000000       0.00000000       0.00000000       0.00000000       0.00000000       2.19184685
Re       0.00000000       0.00000000       3.06060606       0.00000000       0.00000000      -2.19184685
2
Properties=species:S:1:pos:R:3:forces:R:3 energy=-9.775003962099316 pbc="F F F"
Re       0.00000000       0.00000000       0.00000000       0.00000000       0.00000000       2.05660748
Re       0.00000000       0.00000000       3.11939394       0.00000000       0.00000000      -2.05660748
2
Properties=species:S:1:pos:R:3:forces:R:3 energy=-9.658336743440259 pbc="F F F"
Re       0.00000000       0.00000000       0.00000000       0.00000000       0.00000000       1.91105914
Re       0.00000000       0.00000000       3.17818182       0.00000000       0.00000000      -1.91105914
2
Properties=species:S:1:pos:R:3:forces:R:3 energy=-9.550342032423613 pbc="F F F"
Re       0.00000000       0.00000000       0.00000000       0.00000000       0.00000000       1.76393306
Re       0.00000000       0.00000000       3.23696970       0.00000000       0.00000000      -1.76393306
2
Properties=species:S:1:pos:R:3:forces:R:3 energy=-9.450728342037854 pbc="F F F"
Re       0.00000000       0.00000000       0.00000000       0.00000000       0.00000000       1.62733483
Re       0.00000000       0.00000000       3.29575758       0.00000000       0.00000000      -1.62733483
2
Properties=species:S:1:pos:R:3:forces:R:3 energy=-9.358699492334155 pbc="F F F"
Re       0.00000000       0.00000000       0.00000000       0.00000000       0.00000000       1.50620043
Re       0.00000000       0.00000000       3.35454545       0.00000000       0.00000000      -1.50620043
2
Properties=species:S:1:pos:R:3:forces:R:3 energy=-9.273362254617746 pbc="F F F"
Re       0.00000000       0.00000000       0.00000000       0.00000000       0.00000000       1.39883268
Re       0.00000000       0.00000000       3.41333333       0.00000000       0.00000000      -1.39883268
2
Properties=species:S:1:pos:R:3:forces:R:3 energy=-9.19404906019481 pbc="F F F"
Re       0.00000000       0.00000000       0.00000000       0.00000000       0.00000000       1.30063868
Re       0.00000000       0.00000000       3.47212121       0.00000000       0.00000000      -1.30063868
2
Properties=species:S:1:pos:R:3:forces:R:3 energy=-9.12033292938836 pbc="F F F"
Re       0.00000000       0.00000000       0.00000000       0.00000000       0.00000000       1.20794129
Re       0.00000000       0.00000000       3.53090909       0.00000000       0.00000000      -1.20794129
2
Properties=species:S:1:pos:R:3:forces:R:3 energy=-9.051964221594744 pbc="F F F"
Re       0.00000000       0.00000000       0.00000000       0.00000000       0.00000000       1.11849189
Re       0.00000000       0.00000000       3.58969697       0.00000000       0.00000000      -1.11849189
2
Properties=species:S:1:pos:R:3:forces:R:3 energy=-8.988796993285035 pbc="F F F"
Re       0.00000000       0.00000000       0.00000000       0.00000000       0.00000000       1.03046238
Re       0.00000000       0.00000000       3.64848485       0.00000000       0.00000000      -1.03046238
2
Properties=species:S:1:pos:R:3:forces:R:3 energy=-8.930803873327747 pbc="F F F"
Re       0.00000000       0.00000000       0.00000000       0.00000000       0.00000000       0.94246453
Re       0.00000000       0.00000000       3.70727273       0.00000000       0.00000000      -0.94246453
2
Properties=species:S:1:pos:R:3:forces:R:3 energy=-8.877992782876749 pbc="F F F"
Re       0.00000000       0.00000000       0.00000000       0.00000000       0.00000000       0.85421336
Re       0.00000000       0.00000000       3.76606061       0.00000000       0.00000000      -0.85421336
2
Properties=species:S:1:pos:R:3:forces:R:3 energy=-8.830357502697916 pbc="F F F"
Re       0.00000000       0.00000000       0.00000000       0.00000000       0.00000000       0.76663917
Re       0.00000000       0.00000000       3.82484848       0.00000000       0.00000000      -0.76663917
2
Properties=species:S:1:pos:R:3:forces:R:3 energy=-8.787812021696759 pbc="F F F"
Re       0.00000000       0.00000000       0.00000000       0.00000000       0.00000000       0.68129742
Re       0.00000000       0.00000000       3.88363636       0.00000000       0.00000000      -0.68129742
2
Properties=species:S:1:pos:R:3:forces:R:3 energy=-8.750179919788058 pbc="F F F"
Re       0.00000000       0.00000000       0.00000000       0.00000000       0.00000000       0.59965360
Re       0.00000000       0.00000000       3.94242424       0.00000000       0.00000000      -0.59965360
2
Properties=species:S:1:pos:R:3:forces:R:3 energy=-8.71721536773776 pbc="F F F"
Re       0.00000000       0.00000000       0.00000000       0.00000000       0.00000000       0.52269596
Re       0.00000000       0.00000000       4.00121212       0.00000000       0.00000000      -0.52269596
2
Properties=species:S:1:pos:R:3:forces:R:3 energy=-8.68861861403523 pbc="F F F"
Re       0.00000000       0.00000000       0.00000000       0.00000000       0.00000000       0.45101508
Re       0.00000000       0.00000000       4.06000000       0.00000000       0.00000000      -0.45101508
2
Properties=species:S:1:pos:R:3:forces:R:3 energy=-8.66407405583818 pbc="F F F"
Re       0.00000000       0.00000000       0.00000000       0.00000000       0.00000000       0.38507897
Re       0.00000000       0.00000000       4.11878788       0.00000000       0.00000000      -0.38507897
2
Properties=species:S:1:pos:R:3:forces:R:3 energy=-8.643223545595278 pbc="F F F"
Re       0.00000000       0.00000000       0.00000000       0.00000000       0.00000000       0.32536602
Re       0.00000000       0.00000000       4.17757576       0.00000000       0.00000000      -0.32536602
2
Properties=species:S:1:pos:R:3:forces:R:3 energy=-8.62568852196039 pbc="F F F"
Re       0.00000000       0.00000000       0.00000000       0.00000000       0.00000000       0.27228808
Re       0.00000000       0.00000000       4.23636364       0.00000000       0.00000000      -0.27228808
2
Properties=species:S:1:pos:R:3:forces:R:3 energy=-8.61107254452986 pbc="F F F"
Re       0.00000000       0.00000000       0.00000000       0.00000000       0.00000000       0.22600670
Re       0.00000000       0.00000000       4.29515152       0.00000000       0.00000000      -0.22600670
2
Properties=species:S:1:pos:R:3:forces:R:3 energy=-8.598985534845998 pbc="F F F"
Re       0.00000000       0.00000000       0.00000000       0.00000000       0.00000000       0.18633124
Re       0.00000000       0.00000000       4.35393939       0.00000000       0.00000000      -0.18633124
2
Properties=species:S:1:pos:R:3:forces:R:3 energy=-8.58904544615906 pbc="F F F"
Re       0.00000000       0.00000000       0.00000000       0.00000000       0.00000000       0.15274286
Re       0.00000000       0.00000000       4.41272727       0.00000000       0.00000000      -0.15274286
2
Properties=species:S:1:pos:R:3:forces:R:3 energy=-8.580923181154787 pbc="F F F"
Re       0.00000000       0.00000000       0.00000000       0.00000000       0.00000000       0.12454385
Re       0.00000000       0.00000000       4.47151515       0.00000000       0.00000000      -0.12454385
2
Properties=species:S:1:pos:R:3:forces:R:3 energy=-8.574312014187647 pbc="F F F"
Re       0.00000000       0.00000000       0.00000000       0.00000000       0.00000000       0.10102600
Re       0.00000000       0.00000000       4.53030303       0.00000000       0.00000000      -0.10102600
2
Properties=species:S:1:pos:R:3:forces:R:3 energy=-8.5689656812327 pbc="F F F"
Re       0.00000000       0.00000000       0.00000000       0.00000000       0.00000000       0.08158909
Re       0.00000000       0.00000000       4.58909091       0.00000000       0.00000000      -0.08158909
2
Properties=species:S:1:pos:R:3:forces:R:3 energy=-8.564647927013674 pbc="F F F"
Re       0.00000000       0.00000000       0.00000000       0.00000000       0.00000000       0.06578232
Re       0.00000000       0.00000000       4.64787879       0.00000000       0.00000000      -0.06578232
2
Properties=species:S:1:pos:R:3:forces:R:3 energy=-8.561162778658778 pbc="F F F"
Re       0.00000000       0.00000000       0.00000000       0.00000000       0.00000000       0.05326458
Re       0.00000000       0.00000000       4.70666667       0.00000000       0.00000000      -0.05326458
2
Properties=species:S:1:pos:R:3:forces:R:3 energy=-8.558325954478144 pbc="F F F"
Re       0.00000000       0.00000000       0.00000000       0.00000000       0.00000000       0.04374329
Re       0.00000000       0.00000000       4.76545455       0.00000000       0.00000000      -0.04374329
2
Properties=species:S:1:pos:R:3:forces:R:3 energy=-8.55596961016066 pbc="F F F"
Re       0.00000000       0.00000000       0.00000000       0.00000000       0.00000000       0.03692248
Re       0.00000000       0.00000000       4.82424242       0.00000000       0.00000000      -0.03692248
2
Properties=species:S:1:pos:R:3:forces:R:3 energy=-8.553940349061953 pbc="F F F"
Re       0.00000000       0.00000000       0.00000000       0.00000000       0.00000000       0.03249141
Re       0.00000000       0.00000000       4.88303030       0.00000000       0.00000000      -0.03249141
2
Properties=species:S:1:pos:R:3:forces:R:3 energy=-8.552106683704352 pbc="F F F"
Re       0.00000000       0.00000000       0.00000000       0.00000000       0.00000000       0.03013069
Re       0.00000000       0.00000000       4.94181818       0.00000000       0.00000000      -0.03013069
2
Properties=species:S:1:pos:R:3:forces:R:3 energy=-8.550362834635038 pbc="F F F"
Re       0.00000000       0.00000000       0.00000000       0.00000000       0.00000000       0.02952752
Re       0.00000000       0.00000000       5.00060606       0.00000000       0.00000000      -0.02952752
2
Properties=species:S:1:pos:R:3:forces:R:3 energy=-8.548606770574196 pbc="F F F"
Re       0.00000000       0.00000000       0.00000000       0.00000000       0.00000000       0.03036005
Re       0.00000000       0.00000000       5.05939394       0.00000000       0.00000000      -0.03036005
2
Properties=species:S:1:pos:R:3:forces:R:3 energy=-8.546770564434206 pbc="F F F"
Re       0.00000000       0.00000000       0.00000000       0.00000000       0.00000000       0.03226981
Re       0.00000000       0.00000000       5.11818182       0.00000000       0.00000000      -0.03226981
2
Properties=species:S:1:pos:R:3:forces:R:3 energy=-8.5448022545007 pbc="F F F"
Re       0.00000000       0.00000000       0.00000000       0.00000000       0.00000000       0.03482950
Re       0.00000000       0.00000000       5.17696970       0.00000000       0.00000000      -0.03482950
2
Properties=species:S:1:pos:R:3:forces:R:3 energy=-8.542673451652334 pbc="F F F"
Re       0.00000000       0.00000000       0.00000000       0.00000000       0.00000000       0.03753579
Re       0.00000000       0.00000000       5.23575758       0.00000000       0.00000000      -0.03753579
2
Properties=species:S:1:pos:R:3:forces:R:3 energy=-8.540396388289073 pbc="F F F"
Re       0.00000000       0.00000000       0.00000000       0.00000000       0.00000000       0.03984432
Re       0.00000000       0.00000000       5.29454545       0.00000000       0.00000000      -0.03984432
2
Properties=species:S:1:pos:R:3:forces:R:3 energy=-8.538005861876611 pbc="F F F"
Re       0.00000000       0.00000000       0.00000000       0.00000000       0.00000000       0.04124510
Re       0.00000000       0.00000000       5.35333333       0.00000000       0.00000000      -0.04124510
2
Properties=species:S:1:pos:R:3:forces:R:3 energy=-8.535573441858642 pbc="F F F"
Re       0.00000000       0.00000000       0.00000000       0.00000000       0.00000000       0.04135592
Re       0.00000000       0.00000000       5.41212121       0.00000000       0.00000000      -0.04135592
2
Properties=species:S:1:pos:R:3:forces:R:3 energy=-8.533171237952379 pbc="F F F"
Re       0.00000000       0.00000000       0.00000000       0.00000000       0.00000000       0.04000379
Re       0.00000000       0.00000000       5.47090909       0.00000000       0.00000000      -0.04000379
2
Properties=species:S:1:pos:R:3:forces:R:3 energy=-8.53089385524869 pbc="F F F"
Re       0.00000000       0.00000000       0.00000000       0.00000000       0.00000000       0.03726588
Re       0.00000000       0.00000000       5.52969697       0.00000000       0.00000000      -0.03726588
2
Properties=species:S:1:pos:R:3:forces:R:3 energy=-8.528813587358327 pbc="F F F"
Re       0.00000000       0.00000000       0.00000000       0.00000000       0.00000000       0.03345516
Re       0.00000000       0.00000000       5.58848485       0.00000000       0.00000000      -0.03345516
2
Properties=species:S:1:pos:R:3:forces:R:3 energy=-8.526973705845666 pbc="F F F"
Re       0.00000000       0.00000000       0.00000000       0.00000000       0.00000000       0.02906174
Re       0.00000000       0.00000000       5.64727273       0.00000000       0.00000000      -0.02906174
2
Properties=species:S:1:pos:R:3:forces:R:3 energy=-8.525395178714533 pbc="F F F"
Re       0.00000000       0.00000000       0.00000000       0.00000000       0.00000000       0.02463835
Re       0.00000000       0.00000000       5.70606061       0.00000000       0.00000000      -0.02463835
2
Properties=species:S:1:pos:R:3:forces:R:3 energy=-8.524065286505015 pbc="F F F"
Re       0.00000000       0.00000000       0.00000000       0.00000000       0.00000000       0.02069652
Re       0.00000000       0.00000000       5.76484848       0.00000000       0.00000000      -0.02069652
2
Properties=species:S:1:pos:R:3:forces:R:3 energy=-8.522944286926306 pbc="F F F"
Re       0.00000000       0.00000000       0.00000000       0.00000000       0.00000000       0.01760349
Re       0.00000000       0.00000000       5.82363636       0.00000000       0.00000000      -0.01760349
2
Properties=species:S:1:pos:R:3:forces:R:3 energy=-8.521974976942442 pbc="F F F"
Re       0.00000000       0.00000000       0.00000000       0.00000000       0.00000000       0.01549415
Re       0.00000000       0.00000000       5.88242424       0.00000000       0.00000000      -0.01549415
2
Properties=species:S:1:pos:R:3:forces:R:3 energy=-8.521107564332263 pbc="F F F"
Re       0.00000000       0.00000000       0.00000000       0.00000000       0.00000000       0.01424961
Re       0.00000000       0.00000000       5.94121212       0.00000000       0.00000000      -0.01424961
2
Properties=species:S:1:pos:R:3:forces:R:3 energy=-8.520292014536217 pbc="F F F"
Re       0.00000000       0.00000000       0.00000000       0.00000000       0.00000000       0.01352419
Re       0.00000000       0.00000000       6.00000000       0.00000000       0.00000000      -0.01352419
