2
Properties=species:S:1:pos:R:3:forces:R:3 energy=2110359.1929307464 pbc="F F F"
Rh       0.00000000       0.00000000       0.00000000       0.00000000       0.00000000 -10878050.00000000
Rh       0.00000000       0.00000000       0.10000000       0.00000000       0.00000000 10878050.00000000
2
Properties=species:S:1:pos:R:3:forces:R:3 energy=1410726.1929307464 pbc="F F F"
Rh       0.00000000       0.00000000       0.00000000       0.00000000       0.00000000 -11822591.00000000
Rh       0.00000000       0.00000000       0.15959596       0.00000000       0.00000000 11822591.00000000
2
Properties=species:S:1:pos:R:3:forces:R:3 energy=776105.3804307464 pbc="F F F"
Rh       0.00000000       0.00000000       0.00000000       0.00000000       0.00000000 -9064644.00000000
Rh       0.00000000       0.00000000       0.21919192       0.00000000       0.00000000 9064644.00000000
2
Properties=species:S:1:pos:R:3:forces:R:3 energy=350320.44293075264 pbc="F F F"
Rh       0.00000000       0.00000000       0.00000000       0.00000000       0.00000000 -5266287.50000000
Rh       0.00000000       0.00000000       0.27878788       0.00000000       0.00000000 5266287.50000000
2
Properties=species:S:1:pos:R:3:forces:R:3 energy=128567.91949325266 pbc="F F F"
Rh       0.00000000       0.00000000       0.00000000       0.00000000       0.00000000 -2401738.00000000
Rh       0.00000000       0.00000000       0.33838384       0.00000000       0.00000000 2401738.00000000
2
Properties=species:S:1:pos:R:3:forces:R:3 energy=37754.22808701533 pbc="F F F"
Rh       0.00000000       0.00000000       0.00000000       0.00000000       0.00000000 -868794.50000000
Rh       0.00000000       0.00000000       0.39797980       0.00000000       0.00000000  868794.50000000
2
Properties=species:S:1:pos:R:3:forces:R:3 energy=7611.550840934257 pbc="F F F"
Rh       0.00000000       0.00000000       0.00000000       0.00000000       0.00000000 -245504.75000000
Rh       0.00000000       0.00000000       0.45757576       0.00000000       0.00000000  245504.75000000
2
Properties=species:S:1:pos:R:3:forces:R:3 energy=461.0837999503107 pbc="F F F"
Rh       0.00000000       0.00000000       0.00000000       0.00000000       0.00000000  -39195.40234375
Rh       0.00000000       0.00000000       0.51717172       0.00000000       0.00000000   39195.40234375
2
Properties=species:S:1:pos:R:3:forces:R:3 energy=76.61518733643308 pbc="F F F"
Rh       0.00000000       0.00000000       0.00000000       0.00000000       0.00000000    -538.50012207
Rh       0.00000000       0.00000000       0.57676768       0.00000000       0.00000000     538.50012207
2
Properties=species:S:1:pos:R:3:forces:R:3 energy=6.172558570994117 pbc="F F F"
Rh       0.00000000       0.00000000       0.00000000       0.00000000       0.00000000   -1232.47094727
Rh       0.00000000       0.00000000       0.63636364       0.00000000       0.00000000    1232.47094727
2
Properties=species:S:1:pos:R:3:forces:R:3 energy=-33.62162119333225 pbc="F F F"
Rh       0.00000000       0.00000000       0.00000000       0.00000000       0.00000000    -121.24729919
Rh       0.00000000       0.00000000       0.69595960       0.00000000       0.00000000     121.24729919
2
Properties=species:S:1:pos:R:3:forces:R:3 energy=-16.453064751870155 pbc="F F F"
Rh       0.00000000       0.00000000       0.00000000       0.00000000       0.00000000     364.39648438
Rh       0.00000000       0.00000000       0.75555556       0.00000000       0.00000000    -364.39648438
2
Properties=species:S:1:pos:R:3:forces:R:3 energy=1.0996823630207508 pbc="F F F"
Rh       0.00000000       0.00000000       0.00000000       0.00000000       0.00000000     130.74855042
Rh       0.00000000       0.00000000       0.81515152       0.00000000       0.00000000    -130.74855042
2
Properties=species:S:1:pos:R:3:forces:R:3 energy=8.53671461578294 pbc="F F F"
Rh       0.00000000       0.00000000       0.00000000       0.00000000       0.00000000      60.64989471
Rh       0.00000000       0.00000000       0.87474747       0.00000000       0.00000000     -60.64989471
2
Properties=species:S:1:pos:R:3:forces:R:3 energy=8.346928414364358 pbc="F F F"
Rh       0.00000000       0.00000000       0.00000000       0.00000000       0.00000000     -46.32186890
Rh       0.00000000       0.00000000       0.93434343       0.00000000       0.00000000      46.32186890
2
Properties=species:S:1:pos:R:3:forces:R:3 energy=7.031751472573111 pbc="F F F"
Rh       0.00000000       0.00000000       0.00000000       0.00000000       0.00000000      18.43807411
Rh       0.00000000       0.00000000       0.99393939       0.00000000       0.00000000     -18.43807411
2
Properties=species:S:1:pos:R:3:forces:R:3 energy=7.968070246906069 pbc="F F F"
Rh       0.00000000       0.00000000       0.00000000       0.00000000       0.00000000      -7.06984615
Rh       0.00000000       0.00000000       1.05353535       0.00000000       0.00000000       7.06984615
2
Properties=species:S:1:pos:R:3:forces:R:3 energy=7.181202984485495 pbc="F F F"
Rh       0.00000000       0.00000000       0.00000000       0.00000000       0.00000000     -18.75167465
Rh       0.00000000       0.00000000       1.11313131       0.00000000       0.00000000      18.75167465
2
Properties=species:S:1:pos:R:3:forces:R:3 energy=6.355176504821346 pbc="F F F"
Rh       0.00000000       0.00000000       0.00000000       0.00000000       0.00000000      -9.86719418
Rh       0.00000000       0.00000000       1.17272727       0.00000000       0.00000000       9.86719418
2
Properties=species:S:1:pos:R:3:forces:R:3 energy=5.3089606865315835 pbc="F F F"
Rh       0.00000000       0.00000000       0.00000000       0.00000000       0.00000000     -34.49150467
Rh       0.00000000       0.00000000       1.23232323       0.00000000       0.00000000      34.49150467
2
Properties=species:S:1:pos:R:3:forces:R:3 energy=2.8494137507514576 pbc="F F F"
Rh       0.00000000       0.00000000       0.00000000       0.00000000       0.00000000     -35.84002304
Rh       0.00000000       0.00000000       1.29191919       0.00000000       0.00000000      35.84002304
2
Properties=species:S:1:pos:R:3:forces:R:3 energy=1.1967183000378938 pbc="F F F"
Rh       0.00000000       0.00000000       0.00000000       0.00000000       0.00000000     -21.80397987
Rh       0.00000000       0.00000000       1.35151515       0.00000000       0.00000000      21.80397987
2
Properties=species:S:1:pos:R:3:forces:R:3 energy=-0.01985392392708475 pbc="F F F"
Rh       0.00000000       0.00000000       0.00000000       0.00000000       0.00000000     -20.01922035
Rh       0.00000000       0.00000000       1.41111111       0.00000000       0.00000000      20.01922035
2
Properties=species:S:1:pos:R:3:forces:R:3 energy=-1.1396447850272768 pbc="F F F"
Rh       0.00000000       0.00000000       0.00000000       0.00000000       0.00000000     -16.36235237
Rh       0.00000000       0.00000000       1.47070707       0.00000000       0.00000000      16.36235237
2
Properties=species:S:1:pos:R:3:forces:R:3 energy=-1.9686079903221652 pbc="F F F"
Rh       0.00000000       0.00000000       0.00000000       0.00000000       0.00000000     -12.56153011
Rh       0.00000000       0.00000000       1.53030303       0.00000000       0.00000000      12.56153011
2
Properties=species:S:1:pos:R:3:forces:R:3 energy=-2.6684958921569772 pbc="F F F"
Rh       0.00000000       0.00000000       0.00000000       0.00000000       0.00000000     -11.13746643
Rh       0.00000000       0.00000000       1.58989899       0.00000000       0.00000000      11.13746643
2
Properties=species:S:1:pos:R:3:forces:R:3 energy=-3.3433473849561386 pbc="F F F"
Rh       0.00000000       0.00000000       0.00000000       0.00000000       0.00000000     -10.81157494
Rh       0.00000000       0.00000000       1.64949495       0.00000000       0.00000000      10.81157494
2
Properties=species:S:1:pos:R:3:forces:R:3 energy=-3.928834975303643 pbc="F F F"
Rh       0.00000000       0.00000000       0.00000000       0.00000000       0.00000000      -8.73544693
Rh       0.00000000       0.00000000       1.70909091       0.00000000       0.00000000       8.73544693
2
Properties=species:S:1:pos:R:3:forces:R:3 energy=-4.391010591845491 pbc="F F F"
Rh       0.00000000       0.00000000       0.00000000       0.00000000       0.00000000      -7.15205526
Rh       0.00000000       0.00000000       1.76868687       0.00000000       0.00000000       7.15205526
2
Properties=species:S:1:pos:R:3:forces:R:3 energy=-4.85411641829622 pbc="F F F"
Rh       0.00000000       0.00000000       0.00000000       0.00000000       0.00000000      -8.51713657
Rh       0.00000000       0.00000000       1.82828283       0.00000000       0.00000000       8.51713657
2
Properties=species:S:1:pos:R:3:forces:R:3 energy=-5.335568578407256 pbc="F F F"
Rh       0.00000000       0.00000000       0.00000000       0.00000000       0.00000000      -7.51778698
Rh       0.00000000       0.00000000       1.88787879       0.00000000       0.00000000       7.51778698
2
Properties=species:S:1:pos:R:3:forces:R:3 energy=-5.747623176327422 pbc="F F F"
Rh       0.00000000       0.00000000       0.00000000       0.00000000       0.00000000      -6.25367117
Rh       0.00000000       0.00000000       1.94747475       0.00000000       0.00000000       6.25367117
2
Properties=species:S:1:pos:R:3:forces:R:3 energy=-6.082345718476687 pbc="F F F"
Rh       0.00000000       0.00000000       0.00000000       0.00000000       0.00000000      -4.99476862
Rh       0.00000000       0.00000000       2.00707071       0.00000000       0.00000000       4.99476862
2
Properties=species:S:1:pos:R:3:forces:R:3 energy=-6.3349572762367625 pbc="F F F"
Rh       0.00000000       0.00000000       0.00000000       0.00000000       0.00000000      -3.43749499
Rh       0.00000000       0.00000000       2.06666667       0.00000000       0.00000000       3.43749499
2
Properties=species:S:1:pos:R:3:forces:R:3 energy=-6.4979635555059785 pbc="F F F"
Rh       0.00000000       0.00000000       0.00000000       0.00000000       0.00000000      -2.06432772
Rh       0.00000000       0.00000000       2.12626263       0.00000000       0.00000000       2.06432772
2
Properties=species:S:1:pos:R:3:forces:R:3 energy=-6.584241499268412 pbc="F F F"
Rh       0.00000000       0.00000000       0.00000000       0.00000000       0.00000000      -0.89393687
Rh       0.00000000       0.00000000       2.18585859       0.00000000       0.00000000       0.89393687
2
Properties=species:S:1:pos:R:3:forces:R:3 energy=-6.609563755987698 pbc="F F F"
Rh       0.00000000       0.00000000       0.00000000       0.00000000       0.00000000       0.01685713
Rh       0.00000000       0.00000000       2.24545455       0.00000000       0.00000000      -0.01685713
2
Properties=species:S:1:pos:R:3:forces:R:3 energy=-6.588204781986793 pbc="F F F"
Rh       0.00000000       0.00000000       0.00000000       0.00000000       0.00000000       0.64948934
Rh       0.00000000       0.00000000       2.30505051       0.00000000       0.00000000      -0.64948934
2
Properties=species:S:1:pos:R:3:forces:R:3 energy=-6.53467237732366 pbc="F F F"
Rh       0.00000000       0.00000000       0.00000000       0.00000000       0.00000000       1.14622557
Rh       0.00000000       0.00000000       2.36464646       0.00000000       0.00000000      -1.14622557
2
Properties=species:S:1:pos:R:3:forces:R:3 energy=-6.452091872079947 pbc="F F F"
Rh       0.00000000       0.00000000       0.00000000       0.00000000       0.00000000       1.60912931
Rh       0.00000000       0.00000000       2.42424242       0.00000000       0.00000000      -1.60912931
2
Properties=species:S:1:pos:R:3:forces:R:3 energy=-6.3466799042564555 pbc="F F F"
Rh       0.00000000       0.00000000       0.00000000       0.00000000       0.00000000       1.89064205
Rh       0.00000000       0.00000000       2.48383838       0.00000000       0.00000000      -1.89064205
2
Properties=species:S:1:pos:R:3:forces:R:3 energy=-6.229070241845451 pbc="F F F"
Rh       0.00000000       0.00000000       0.00000000       0.00000000       0.00000000       2.05462766
Rh       0.00000000       0.00000000       2.54343434       0.00000000       0.00000000      -2.05462766
2
Properties=species:S:1:pos:R:3:forces:R:3 energy=-6.102422887177163 pbc="F F F"
Rh       0.00000000       0.00000000       0.00000000       0.00000000       0.00000000       2.17930675
Rh       0.00000000       0.00000000       2.60303030       0.00000000       0.00000000      -2.17930675
2
Properties=species:S:1:pos:R:3:forces:R:3 energy=-5.97177100306302 pbc="F F F"
Rh       0.00000000       0.00000000       0.00000000       0.00000000       0.00000000       2.18690753
Rh       0.00000000       0.00000000       2.66262626       0.00000000       0.00000000      -2.18690753
2
Properties=species:S:1:pos:R:3:forces:R:3 energy=-5.843219860521846 pbc="F F F"
Rh       0.00000000       0.00000000       0.00000000       0.00000000       0.00000000       2.12025142
Rh       0.00000000       0.00000000       2.72222222       0.00000000       0.00000000      -2.12025142
2
Properties=species:S:1:pos:R:3:forces:R:3 energy=-5.719524744387438 pbc="F F F"
Rh       0.00000000       0.00000000       0.00000000       0.00000000       0.00000000       2.02886176
Rh       0.00000000       0.00000000       2.78181818       0.00000000       0.00000000      -2.02886176
2
Properties=species:S:1:pos:R:3:forces:R:3 energy=-5.6015864367192965 pbc="F F F"
Rh       0.00000000       0.00000000       0.00000000       0.00000000       0.00000000       1.92701519
Rh       0.00000000       0.00000000       2.84141414       0.00000000       0.00000000      -1.92701519
2
Properties=species:S:1:pos:R:3:forces:R:3 energy=-5.490196880537216 pbc="F F F"
Rh       0.00000000       0.00000000       0.00000000       0.00000000       0.00000000       1.80778372
Rh       0.00000000       0.00000000       2.90101010       0.00000000       0.00000000      -1.80778372
2
Properties=species:S:1:pos:R:3:forces:R:3 energy=-5.386387680684748 pbc="F F F"
Rh       0.00000000       0.00000000       0.00000000       0.00000000       0.00000000       1.67551935
Rh       0.00000000       0.00000000       2.96060606       0.00000000       0.00000000      -1.67551935
2
Properties=species:S:1:pos:R:3:forces:R:3 energy=-5.290259329182188 pbc="F F F"
Rh       0.00000000       0.00000000       0.00000000       0.00000000       0.00000000       1.55421448
Rh       0.00000000       0.00000000       3.02020202       0.00000000       0.00000000      -1.55421448
2
Properties=species:S:1:pos:R:3:forces:R:3 energy=-5.2006477992961315 pbc="F F F"
Rh       0.00000000       0.00000000       0.00000000       0.00000000       0.00000000       1.45665669
Rh       0.00000000       0.00000000       3.07979798       0.00000000       0.00000000      -1.45665669
2
Properties=species:S:1:pos:R:3:forces:R:3 energy=-5.116327080113455 pbc="F F F"
Rh       0.00000000       0.00000000       0.00000000       0.00000000       0.00000000       1.37496924
Rh       0.00000000       0.00000000       3.13939394       0.00000000       0.00000000      -1.37496924
2
Properties=species:S:1:pos:R:3:forces:R:3 energy=-5.03658423583244 pbc="F F F"
Rh       0.00000000       0.00000000       0.00000000       0.00000000       0.00000000       1.30262017
Rh       0.00000000       0.00000000       3.19898990       0.00000000       0.00000000      -1.30262017
2
Properties=species:S:1:pos:R:3:forces:R:3 energy=-4.960886634355867 pbc="F F F"
Rh       0.00000000       0.00000000       0.00000000       0.00000000       0.00000000       1.23913836
Rh       0.00000000       0.00000000       3.25858586       0.00000000       0.00000000      -1.23913836
2
Properties=species:S:1:pos:R:3:forces:R:3 energy=-4.888746897742596 pbc="F F F"
Rh       0.00000000       0.00000000       0.00000000       0.00000000       0.00000000       1.18284750
Rh       0.00000000       0.00000000       3.31818182       0.00000000       0.00000000      -1.18284750
2
Properties=species:S:1:pos:R:3:forces:R:3 energy=-4.819812220828084 pbc="F F F"
Rh       0.00000000       0.00000000       0.00000000       0.00000000       0.00000000       1.13103724
Rh       0.00000000       0.00000000       3.37777778       0.00000000       0.00000000      -1.13103724
2
Properties=species:S:1:pos:R:3:forces:R:3 energy=-4.753893149188596 pbc="F F F"
Rh       0.00000000       0.00000000       0.00000000       0.00000000       0.00000000       1.08135855
Rh       0.00000000       0.00000000       3.43737374       0.00000000       0.00000000      -1.08135855
2
Properties=species:S:1:pos:R:3:forces:R:3 energy=-4.690912175762788 pbc="F F F"
Rh       0.00000000       0.00000000       0.00000000       0.00000000       0.00000000       1.03224421
Rh       0.00000000       0.00000000       3.49696970       0.00000000       0.00000000      -1.03224421
2
Properties=species:S:1:pos:R:3:forces:R:3 energy=-4.6308668579999335 pbc="F F F"
Rh       0.00000000       0.00000000       0.00000000       0.00000000       0.00000000       0.98261935
Rh       0.00000000       0.00000000       3.55656566       0.00000000       0.00000000      -0.98261935
2
Properties=species:S:1:pos:R:3:forces:R:3 energy=-4.573828011881601 pbc="F F F"
Rh       0.00000000       0.00000000       0.00000000       0.00000000       0.00000000       0.93115461
Rh       0.00000000       0.00000000       3.61616162       0.00000000       0.00000000      -0.93115461
2
Properties=species:S:1:pos:R:3:forces:R:3 energy=-4.519949235993532 pbc="F F F"
Rh       0.00000000       0.00000000       0.00000000       0.00000000       0.00000000       0.87628299
Rh       0.00000000       0.00000000       3.67575758       0.00000000       0.00000000      -0.87628299
2
Properties=species:S:1:pos:R:3:forces:R:3 energy=-4.46947004498129 pbc="F F F"
Rh       0.00000000       0.00000000       0.00000000       0.00000000       0.00000000       0.81697321
Rh       0.00000000       0.00000000       3.73535354       0.00000000       0.00000000      -0.81697321
2
Properties=species:S:1:pos:R:3:forces:R:3 energy=-4.422659539409155 pbc="F F F"
Rh       0.00000000       0.00000000       0.00000000       0.00000000       0.00000000       0.75325537
Rh       0.00000000       0.00000000       3.79494949       0.00000000       0.00000000      -0.75325537
2
Properties=species:S:1:pos:R:3:forces:R:3 energy=-4.379757404665386 pbc="F F F"
Rh       0.00000000       0.00000000       0.00000000       0.00000000       0.00000000       0.68609476
Rh       0.00000000       0.00000000       3.85454545       0.00000000       0.00000000      -0.68609476
2
Properties=species:S:1:pos:R:3:forces:R:3 energy=-4.340924332569063 pbc="F F F"
Rh       0.00000000       0.00000000       0.00000000       0.00000000       0.00000000       0.61691713
Rh       0.00000000       0.00000000       3.91414141       0.00000000       0.00000000      -0.61691713
2
Properties=species:S:1:pos:R:3:forces:R:3 energy=-4.306236273981608 pbc="F F F"
Rh       0.00000000       0.00000000       0.00000000       0.00000000       0.00000000       0.54723644
Rh       0.00000000       0.00000000       3.97373737       0.00000000       0.00000000      -0.54723644
2
Properties=species:S:1:pos:R:3:forces:R:3 energy=-4.275677699730126 pbc="F F F"
Rh       0.00000000       0.00000000       0.00000000       0.00000000       0.00000000       0.47857755
Rh       0.00000000       0.00000000       4.03333333       0.00000000       0.00000000      -0.47857755
2
Properties=species:S:1:pos:R:3:forces:R:3 energy=-4.249139756615217 pbc="F F F"
Rh       0.00000000       0.00000000       0.00000000       0.00000000       0.00000000       0.41253421
Rh       0.00000000       0.00000000       4.09292929       0.00000000       0.00000000      -0.41253421
2
Properties=species:S:1:pos:R:3:forces:R:3 energy=-4.226422836994289 pbc="F F F"
Rh       0.00000000       0.00000000       0.00000000       0.00000000       0.00000000       0.35072121
Rh       0.00000000       0.00000000       4.15252525       0.00000000       0.00000000      -0.35072121
2
Properties=species:S:1:pos:R:3:forces:R:3 energy=-4.207226088364074 pbc="F F F"
Rh       0.00000000       0.00000000       0.00000000       0.00000000       0.00000000       0.29452553
Rh       0.00000000       0.00000000       4.21212121       0.00000000       0.00000000      -0.29452553
2
Properties=species:S:1:pos:R:3:forces:R:3 energy=-4.1911900752790965 pbc="F F F"
Rh       0.00000000       0.00000000       0.00000000       0.00000000       0.00000000       0.24483019
Rh       0.00000000       0.00000000       4.27171717       0.00000000       0.00000000      -0.24483019
2
Properties=species:S:1:pos:R:3:forces:R:3 energy=-4.177909069411834 pbc="F F F"
Rh       0.00000000       0.00000000       0.00000000       0.00000000       0.00000000       0.20190284
Rh       0.00000000       0.00000000       4.33131313       0.00000000       0.00000000      -0.20190284
2
Properties=species:S:1:pos:R:3:forces:R:3 energy=-4.166993732296183 pbc="F F F"
Rh       0.00000000       0.00000000       0.00000000       0.00000000       0.00000000       0.16545630
Rh       0.00000000       0.00000000       4.39090909       0.00000000       0.00000000      -0.16545630
2
Properties=species:S:1:pos:R:3:forces:R:3 energy=-4.1580738021201915 pbc="F F F"
Rh       0.00000000       0.00000000       0.00000000       0.00000000       0.00000000       0.13484024
Rh       0.00000000       0.00000000       4.45050505       0.00000000       0.00000000      -0.13484024
2
Properties=species:S:1:pos:R:3:forces:R:3 energy=-4.150820798175964 pbc="F F F"
Rh       0.00000000       0.00000000       0.00000000       0.00000000       0.00000000       0.10924677
Rh       0.00000000       0.00000000       4.51010101       0.00000000       0.00000000      -0.10924677
2
Properties=species:S:1:pos:R:3:forces:R:3 energy=-4.144967747077208 pbc="F F F"
Rh       0.00000000       0.00000000       0.00000000       0.00000000       0.00000000       0.08788136
Rh       0.00000000       0.00000000       4.56969697       0.00000000       0.00000000      -0.08788136
2
Properties=species:S:1:pos:R:3:forces:R:3 energy=-4.140277774863231 pbc="F F F"
Rh       0.00000000       0.00000000       0.00000000       0.00000000       0.00000000       0.07007010
Rh       0.00000000       0.00000000       4.62929293       0.00000000       0.00000000      -0.07007010
2
Properties=species:S:1:pos:R:3:forces:R:3 energy=-4.1365570529581355 pbc="F F F"
Rh       0.00000000       0.00000000       0.00000000       0.00000000       0.00000000       0.05529482
Rh       0.00000000       0.00000000       4.68888889       0.00000000       0.00000000      -0.05529482
2
Properties=species:S:1:pos:R:3:forces:R:3 energy=-4.133633934545282 pbc="F F F"
Rh       0.00000000       0.00000000       0.00000000       0.00000000       0.00000000       0.04318412
Rh       0.00000000       0.00000000       4.74848485       0.00000000       0.00000000      -0.04318412
2
Properties=species:S:1:pos:R:3:forces:R:3 energy=-4.131360560972811 pbc="F F F"
Rh       0.00000000       0.00000000       0.00000000       0.00000000       0.00000000       0.03348271
Rh       0.00000000       0.00000000       4.80808081       0.00000000       0.00000000      -0.03348271
2
Properties=species:S:1:pos:R:3:forces:R:3 energy=-4.129598740372589 pbc="F F F"
Rh       0.00000000       0.00000000       0.00000000       0.00000000       0.00000000       0.02601462
Rh       0.00000000       0.00000000       4.86767677       0.00000000       0.00000000      -0.02601462
2
Properties=species:S:1:pos:R:3:forces:R:3 energy=-4.128216909239209 pbc="F F F"
Rh       0.00000000       0.00000000       0.00000000       0.00000000       0.00000000       0.02065002
Rh       0.00000000       0.00000000       4.92727273       0.00000000       0.00000000      -0.02065002
2
Properties=species:S:1:pos:R:3:forces:R:3 energy=-4.127095911496701 pbc="F F F"
Rh       0.00000000       0.00000000       0.00000000       0.00000000       0.00000000       0.01726611
Rh       0.00000000       0.00000000       4.98686869       0.00000000       0.00000000      -0.01726611
2
Properties=species:S:1:pos:R:3:forces:R:3 energy=-4.126124306154669 pbc="F F F"
Rh       0.00000000       0.00000000       0.00000000       0.00000000       0.00000000       0.01570390
Rh       0.00000000       0.00000000       5.04646465       0.00000000       0.00000000      -0.01570390
2
Properties=species:S:1:pos:R:3:forces:R:3 energy=-4.125195430257615 pbc="F F F"
Rh       0.00000000       0.00000000       0.00000000       0.00000000       0.00000000       0.01572568
Rh       0.00000000       0.00000000       5.10606061       0.00000000       0.00000000      -0.01572568
2
Properties=species:S:1:pos:R:3:forces:R:3 energy=-4.124224777266723 pbc="F F F"
Rh       0.00000000       0.00000000       0.00000000       0.00000000       0.00000000       0.01698678
Rh       0.00000000       0.00000000       5.16565657       0.00000000       0.00000000      -0.01698678
2
Properties=species:S:1:pos:R:3:forces:R:3 energy=-4.123152864418444 pbc="F F F"
Rh       0.00000000       0.00000000       0.00000000       0.00000000       0.00000000       0.01903823
Rh       0.00000000       0.00000000       5.22525253       0.00000000       0.00000000      -0.01903823
2
Properties=species:S:1:pos:R:3:forces:R:3 energy=-4.121948144432604 pbc="F F F"
Rh       0.00000000       0.00000000       0.00000000       0.00000000       0.00000000       0.02136916
Rh       0.00000000       0.00000000       5.28484848       0.00000000       0.00000000      -0.02136916
2
Properties=species:S:1:pos:R:3:forces:R:3 energy=-4.120612873278124 pbc="F F F"
Rh       0.00000000       0.00000000       0.00000000       0.00000000       0.00000000       0.02347514
Rh       0.00000000       0.00000000       5.34444444       0.00000000       0.00000000      -0.02347514
2
Properties=species:S:1:pos:R:3:forces:R:3 energy=-4.119164068364907 pbc="F F F"
Rh       0.00000000       0.00000000       0.00000000       0.00000000       0.00000000       0.02493857
Rh       0.00000000       0.00000000       5.40404040       0.00000000       0.00000000      -0.02493857
2
Properties=species:S:1:pos:R:3:forces:R:3 energy=-4.117656509185124 pbc="F F F"
Rh       0.00000000       0.00000000       0.00000000       0.00000000       0.00000000       0.02549629
Rh       0.00000000       0.00000000       5.46363636       0.00000000       0.00000000      -0.02549629
2
Properties=species:S:1:pos:R:3:forces:R:3 energy=-4.116146543622604 pbc="F F F"
Rh       0.00000000       0.00000000       0.00000000       0.00000000       0.00000000       0.02507188
Rh       0.00000000       0.00000000       5.52323232       0.00000000       0.00000000      -0.02507188
2
Properties=species:S:1:pos:R:3:forces:R:3 energy=-4.114685516770763 pbc="F F F"
Rh       0.00000000       0.00000000       0.00000000       0.00000000       0.00000000       0.02377484
Rh       0.00000000       0.00000000       5.58282828       0.00000000       0.00000000      -0.02377484
2
Properties=species:S:1:pos:R:3:forces:R:3 energy=-4.113323582462032 pbc="F F F"
Rh       0.00000000       0.00000000       0.00000000       0.00000000       0.00000000       0.02185415
Rh       0.00000000       0.00000000       5.64242424       0.00000000       0.00000000      -0.02185415
2
Properties=species:S:1:pos:R:3:forces:R:3 energy=-4.112086946548893 pbc="F F F"
Rh       0.00000000       0.00000000       0.00000000       0.00000000       0.00000000       0.01963425
Rh       0.00000000       0.00000000       5.70202020       0.00000000       0.00000000      -0.01963425
2
Properties=species:S:1:pos:R:3:forces:R:3 energy=-4.110983590533687 pbc="F F F"
Rh       0.00000000       0.00000000       0.00000000       0.00000000       0.00000000       0.01744312
Rh       0.00000000       0.00000000       5.76161616       0.00000000       0.00000000      -0.01744312
2
Properties=species:S:1:pos:R:3:forces:R:3 energy=-4.110002352740337 pbc="F F F"
Rh       0.00000000       0.00000000       0.00000000       0.00000000       0.00000000       0.01553516
Rh       0.00000000       0.00000000       5.82121212       0.00000000       0.00000000      -0.01553516
2
Properties=species:S:1:pos:R:3:forces:R:3 energy=-4.109124445266057 pbc="F F F"
Rh       0.00000000       0.00000000       0.00000000       0.00000000       0.00000000       0.01404790
Rh       0.00000000       0.00000000       5.88080808       0.00000000       0.00000000      -0.01404790
2
Properties=species:S:1:pos:R:3:forces:R:3 energy=-4.10831866818675 pbc="F F F"
Rh       0.00000000       0.00000000       0.00000000       0.00000000       0.00000000       0.01297137
Rh       0.00000000       0.00000000       5.94040404       0.00000000       0.00000000      -0.01297137
2
Properties=species:S:1:pos:R:3:forces:R:3 energy=-4.107569135804268 pbc="F F F"
Rh       0.00000000       0.00000000       0.00000000       0.00000000       0.00000000       0.01216704
Rh       0.00000000       0.00000000       6.00000000       0.00000000       0.00000000      -0.01216704
