2
Properties=species:S:1:pos:R:3:forces:R:3 energy=3893483.964436267 pbc="F F F"
S        0.00000000       0.00000000       0.00000000       0.00000000       0.00000000 -34278212.00000000
S        0.00000000       0.00000000       0.18000000       0.00000000       0.00000000 34278212.00000000
2
Properties=species:S:1:pos:R:3:forces:R:3 energy=2132455.464436267 pbc="F F F"
S        0.00000000       0.00000000       0.00000000       0.00000000       0.00000000 -24818018.00000000
S        0.00000000       0.00000000       0.23878788       0.00000000       0.00000000 24818018.00000000
2
Properties=species:S:1:pos:R:3:forces:R:3 energy=998113.4019362704 pbc="F F F"
S        0.00000000       0.00000000       0.00000000       0.00000000       0.00000000 -14067943.00000000
S        0.00000000       0.00000000       0.29757576       0.00000000       0.00000000 14067943.00000000
2
Properties=species:S:1:pos:R:3:forces:R:3 energy=412261.1831862799 pbc="F F F"
S        0.00000000       0.00000000       0.00000000       0.00000000       0.00000000 -6586922.50000000
S        0.00000000       0.00000000       0.35636364       0.00000000       0.00000000 6586922.50000000
2
Properties=species:S:1:pos:R:3:forces:R:3 energy=152426.02693629576 pbc="F F F"
S        0.00000000       0.00000000       0.00000000       0.00000000       0.00000000 -2685957.50000000
S        0.00000000       0.00000000       0.41515152       0.00000000       0.00000000 2685957.50000000
2
Properties=species:S:1:pos:R:3:forces:R:3 energy=50161.370686330614 pbc="F F F"
S        0.00000000       0.00000000       0.00000000       0.00000000       0.00000000 -1096271.25000000
S        0.00000000       0.00000000       0.47393939       0.00000000       0.00000000 1096271.25000000
2
Properties=species:S:1:pos:R:3:forces:R:3 energy=12392.700764522138 pbc="F F F"
S        0.00000000       0.00000000       0.00000000       0.00000000       0.00000000 -316840.28125000
S        0.00000000       0.00000000       0.53272727       0.00000000       0.00000000  316840.28125000
2
Properties=species:S:1:pos:R:3:forces:R:3 energy=2415.8011064330553 pbc="F F F"
S        0.00000000       0.00000000       0.00000000       0.00000000       0.00000000  -72198.72656250
S        0.00000000       0.00000000       0.59151515       0.00000000       0.00000000   72198.72656250
2
Properties=species:S:1:pos:R:3:forces:R:3 energy=391.91701238167553 pbc="F F F"
S        0.00000000       0.00000000       0.00000000       0.00000000       0.00000000  -12858.01367188
S        0.00000000       0.00000000       0.65030303       0.00000000       0.00000000   12858.01367188
2
Properties=species:S:1:pos:R:3:forces:R:3 energy=101.21588658081801 pbc="F F F"
S        0.00000000       0.00000000       0.00000000       0.00000000       0.00000000    -712.63049316
S        0.00000000       0.00000000       0.70909091       0.00000000       0.00000000     712.63049316
2
Properties=species:S:1:pos:R:3:forces:R:3 energy=75.49461933362126 pbc="F F F"
S        0.00000000       0.00000000       0.00000000       0.00000000       0.00000000    -263.01687622
S        0.00000000       0.00000000       0.76787879       0.00000000       0.00000000     263.01687622
2
Properties=species:S:1:pos:R:3:forces:R:3 energy=61.52019372933266 pbc="F F F"
S        0.00000000       0.00000000       0.00000000       0.00000000       0.00000000    -198.06330872
S        0.00000000       0.00000000       0.82666667       0.00000000       0.00000000     198.06330872
2
Properties=species:S:1:pos:R:3:forces:R:3 energy=49.91379133201705 pbc="F F F"
S        0.00000000       0.00000000       0.00000000       0.00000000       0.00000000    -182.98921204
S        0.00000000       0.00000000       0.88545455       0.00000000       0.00000000     182.98921204
2
Properties=species:S:1:pos:R:3:forces:R:3 energy=40.09787470008799 pbc="F F F"
S        0.00000000       0.00000000       0.00000000       0.00000000       0.00000000    -149.39999390
S        0.00000000       0.00000000       0.94424242       0.00000000       0.00000000     149.39999390
2
Properties=species:S:1:pos:R:3:forces:R:3 energy=32.55612849054984 pbc="F F F"
S        0.00000000       0.00000000       0.00000000       0.00000000       0.00000000    -100.70984650
S        0.00000000       0.00000000       1.00303030       0.00000000       0.00000000     100.70984650
2
Properties=species:S:1:pos:R:3:forces:R:3 energy=29.023587785413714 pbc="F F F"
S        0.00000000       0.00000000       0.00000000       0.00000000       0.00000000       2.60077858
S        0.00000000       0.00000000       1.06181818       0.00000000       0.00000000      -2.60077858
2
Properties=species:S:1:pos:R:3:forces:R:3 energy=28.57194236462272 pbc="F F F"
S        0.00000000       0.00000000       0.00000000       0.00000000       0.00000000     -34.05339813
S        0.00000000       0.00000000       1.12060606       0.00000000       0.00000000      34.05339813
2
Properties=species:S:1:pos:R:3:forces:R:3 energy=24.810929823989895 pbc="F F F"
S        0.00000000       0.00000000       0.00000000       0.00000000       0.00000000     -89.57411957
S        0.00000000       0.00000000       1.17939394       0.00000000       0.00000000      89.57411957
2
Properties=species:S:1:pos:R:3:forces:R:3 energy=18.48717249300883 pbc="F F F"
S        0.00000000       0.00000000       0.00000000       0.00000000       0.00000000    -119.41596985
S        0.00000000       0.00000000       1.23818182       0.00000000       0.00000000     119.41596985
2
Properties=species:S:1:pos:R:3:forces:R:3 energy=11.459746203048166 pbc="F F F"
S        0.00000000       0.00000000       0.00000000       0.00000000       0.00000000    -114.21858215
S        0.00000000       0.00000000       1.29696970       0.00000000       0.00000000     114.21858215
2
Properties=species:S:1:pos:R:3:forces:R:3 energy=5.755870105393779 pbc="F F F"
S        0.00000000       0.00000000       0.00000000       0.00000000       0.00000000     -80.98725891
S        0.00000000       0.00000000       1.35575758       0.00000000       0.00000000      80.98725891
2
Properties=species:S:1:pos:R:3:forces:R:3 energy=1.74415306441924 pbc="F F F"
S        0.00000000       0.00000000       0.00000000       0.00000000       0.00000000     -56.11569595
S        0.00000000       0.00000000       1.41454545       0.00000000       0.00000000      56.11569595
2
Properties=species:S:1:pos:R:3:forces:R:3 energy=-1.007012682789237 pbc="F F F"
S        0.00000000       0.00000000       0.00000000       0.00000000       0.00000000     -39.08707809
S        0.00000000       0.00000000       1.47333333       0.00000000       0.00000000      39.08707809
2
Properties=species:S:1:pos:R:3:forces:R:3 energy=-2.963985294199542 pbc="F F F"
S        0.00000000       0.00000000       0.00000000       0.00000000       0.00000000     -27.99065971
S        0.00000000       0.00000000       1.53212121       0.00000000       0.00000000      27.99065971
2
Properties=species:S:1:pos:R:3:forces:R:3 energy=-4.343885772198026 pbc="F F F"
S        0.00000000       0.00000000       0.00000000       0.00000000       0.00000000     -19.33061981
S        0.00000000       0.00000000       1.59090909       0.00000000       0.00000000      19.33061981
2
Properties=species:S:1:pos:R:3:forces:R:3 energy=-5.293639393589643 pbc="F F F"
S        0.00000000       0.00000000       0.00000000       0.00000000       0.00000000     -13.43709564
S        0.00000000       0.00000000       1.64969697       0.00000000       0.00000000      13.43709564
2
Properties=species:S:1:pos:R:3:forces:R:3 energy=-5.951194893312802 pbc="F F F"
S        0.00000000       0.00000000       0.00000000       0.00000000       0.00000000      -9.09417820
S        0.00000000       0.00000000       1.70848485       0.00000000       0.00000000       9.09417820
2
Properties=species:S:1:pos:R:3:forces:R:3 energy=-6.3956358345925794 pbc="F F F"
S        0.00000000       0.00000000       0.00000000       0.00000000       0.00000000      -6.26929092
S        0.00000000       0.00000000       1.76727273       0.00000000       0.00000000       6.26929092
2
Properties=species:S:1:pos:R:3:forces:R:3 energy=-6.683630549829158 pbc="F F F"
S        0.00000000       0.00000000       0.00000000       0.00000000       0.00000000      -3.38007188
S        0.00000000       0.00000000       1.82606061       0.00000000       0.00000000       3.38007188
2
Properties=species:S:1:pos:R:3:forces:R:3 energy=-6.7943388141623196 pbc="F F F"
S        0.00000000       0.00000000       0.00000000       0.00000000       0.00000000      -0.51226205
S        0.00000000       0.00000000       1.88484848       0.00000000       0.00000000       0.51226205
2
Properties=species:S:1:pos:R:3:forces:R:3 energy=-6.7695877028822915 pbc="F F F"
S        0.00000000       0.00000000       0.00000000       0.00000000       0.00000000       1.10996282
S        0.00000000       0.00000000       1.94363636       0.00000000       0.00000000      -1.10996282
2
Properties=species:S:1:pos:R:3:forces:R:3 energy=-6.685909377299906 pbc="F F F"
S        0.00000000       0.00000000       0.00000000       0.00000000       0.00000000       1.62976384
S        0.00000000       0.00000000       2.00242424       0.00000000       0.00000000      -1.62976384
2
Properties=species:S:1:pos:R:3:forces:R:3 energy=-6.583877638933813 pbc="F F F"
S        0.00000000       0.00000000       0.00000000       0.00000000       0.00000000       1.83447850
S        0.00000000       0.00000000       2.06121212       0.00000000       0.00000000      -1.83447850
2
Properties=species:S:1:pos:R:3:forces:R:3 energy=-6.4628455799751245 pbc="F F F"
S        0.00000000       0.00000000       0.00000000       0.00000000       0.00000000       2.40722513
S        0.00000000       0.00000000       2.12000000       0.00000000       0.00000000      -2.40722513
2
Properties=species:S:1:pos:R:3:forces:R:3 energy=-6.288450558166416 pbc="F F F"
S        0.00000000       0.00000000       0.00000000       0.00000000       0.00000000       3.55582523
S        0.00000000       0.00000000       2.17878788       0.00000000       0.00000000      -3.55582523
2
Properties=species:S:1:pos:R:3:forces:R:3 energy=-6.049298210815306 pbc="F F F"
S        0.00000000       0.00000000       0.00000000       0.00000000       0.00000000       4.51313686
S        0.00000000       0.00000000       2.23757576       0.00000000       0.00000000      -4.51313686
2
Properties=species:S:1:pos:R:3:forces:R:3 energy=-5.765846894229555 pbc="F F F"
S        0.00000000       0.00000000       0.00000000       0.00000000       0.00000000       5.06289482
S        0.00000000       0.00000000       2.29636364       0.00000000       0.00000000      -5.06289482
2
Properties=species:S:1:pos:R:3:forces:R:3 energy=-5.461650743603445 pbc="F F F"
S        0.00000000       0.00000000       0.00000000       0.00000000       0.00000000       5.23147058
S        0.00000000       0.00000000       2.35515152       0.00000000       0.00000000      -5.23147058
2
Properties=species:S:1:pos:R:3:forces:R:3 energy=-5.154206668060633 pbc="F F F"
S        0.00000000       0.00000000       0.00000000       0.00000000       0.00000000       5.21984148
S        0.00000000       0.00000000       2.41393939       0.00000000       0.00000000      -5.21984148
2
Properties=species:S:1:pos:R:3:forces:R:3 energy=-4.8485638327530385 pbc="F F F"
S        0.00000000       0.00000000       0.00000000       0.00000000       0.00000000       5.16605616
S        0.00000000       0.00000000       2.47272727       0.00000000       0.00000000      -5.16605616
2
Properties=species:S:1:pos:R:3:forces:R:3 energy=-4.549500790098189 pbc="F F F"
S        0.00000000       0.00000000       0.00000000       0.00000000       0.00000000       4.97737122
S        0.00000000       0.00000000       2.53151515       0.00000000       0.00000000      -4.97737122
2
Properties=species:S:1:pos:R:3:forces:R:3 energy=-4.267125771987522 pbc="F F F"
S        0.00000000       0.00000000       0.00000000       0.00000000       0.00000000       4.60034657
S        0.00000000       0.00000000       2.59030303       0.00000000       0.00000000      -4.60034657
2
Properties=species:S:1:pos:R:3:forces:R:3 energy=-4.011063879236552 pbc="F F F"
S        0.00000000       0.00000000       0.00000000       0.00000000       0.00000000       4.09924507
S        0.00000000       0.00000000       2.64909091       0.00000000       0.00000000      -4.09924507
2
Properties=species:S:1:pos:R:3:forces:R:3 energy=-3.785513694316443 pbc="F F F"
S        0.00000000       0.00000000       0.00000000       0.00000000       0.00000000       3.57853937
S        0.00000000       0.00000000       2.70787879       0.00000000       0.00000000      -3.57853937
2
Properties=species:S:1:pos:R:3:forces:R:3 energy=-3.5892561969788415 pbc="F F F"
S        0.00000000       0.00000000       0.00000000       0.00000000       0.00000000       3.10983729
S        0.00000000       0.00000000       2.76666667       0.00000000       0.00000000      -3.10983729
2
Properties=species:S:1:pos:R:3:forces:R:3 energy=-3.4184685414841476 pbc="F F F"
S        0.00000000       0.00000000       0.00000000       0.00000000       0.00000000       2.71163535
S        0.00000000       0.00000000       2.82545455       0.00000000       0.00000000      -2.71163535
2
Properties=species:S:1:pos:R:3:forces:R:3 energy=-3.2693111492781237 pbc="F F F"
S        0.00000000       0.00000000       0.00000000       0.00000000       0.00000000       2.37083340
S        0.00000000       0.00000000       2.88424242       0.00000000       0.00000000      -2.37083340
2
Properties=species:S:1:pos:R:3:forces:R:3 energy=-3.1388988755064937 pbc="F F F"
S        0.00000000       0.00000000       0.00000000       0.00000000       0.00000000       2.07221699
S        0.00000000       0.00000000       2.94303030       0.00000000       0.00000000      -2.07221699
2
Properties=species:S:1:pos:R:3:forces:R:3 energy=-3.024932481149826 pbc="F F F"
S        0.00000000       0.00000000       0.00000000       0.00000000       0.00000000       1.81130278
S        0.00000000       0.00000000       3.00181818       0.00000000       0.00000000      -1.81130278
2
Properties=species:S:1:pos:R:3:forces:R:3 energy=-2.9252342736262493 pbc="F F F"
S        0.00000000       0.00000000       0.00000000       0.00000000       0.00000000       1.58568048
S        0.00000000       0.00000000       3.06060606       0.00000000       0.00000000      -1.58568048
2
Properties=species:S:1:pos:R:3:forces:R:3 energy=-2.8380093738764445 pbc="F F F"
S        0.00000000       0.00000000       0.00000000       0.00000000       0.00000000       1.38494849
S        0.00000000       0.00000000       3.11939394       0.00000000       0.00000000      -1.38494849
2
Properties=species:S:1:pos:R:3:forces:R:3 energy=-2.762047684418776 pbc="F F F"
S        0.00000000       0.00000000       0.00000000       0.00000000       0.00000000       1.20249891
S        0.00000000       0.00000000       3.17818182       0.00000000       0.00000000      -1.20249891
2
Properties=species:S:1:pos:R:3:forces:R:3 energy=-2.6962026649938364 pbc="F F F"
S        0.00000000       0.00000000       0.00000000       0.00000000       0.00000000       1.04148245
S        0.00000000       0.00000000       3.23696970       0.00000000       0.00000000      -1.04148245
2
Properties=species:S:1:pos:R:3:forces:R:3 energy=-2.6391552553256155 pbc="F F F"
S        0.00000000       0.00000000       0.00000000       0.00000000       0.00000000       0.90266418
S        0.00000000       0.00000000       3.29575758       0.00000000       0.00000000      -0.90266418
2
Properties=species:S:1:pos:R:3:forces:R:3 energy=-2.589734578956691 pbc="F F F"
S        0.00000000       0.00000000       0.00000000       0.00000000       0.00000000       0.78096890
S        0.00000000       0.00000000       3.35454545       0.00000000       0.00000000      -0.78096890
2
Properties=species:S:1:pos:R:3:forces:R:3 energy=-2.547104576646418 pbc="F F F"
S        0.00000000       0.00000000       0.00000000       0.00000000       0.00000000       0.67100126
S        0.00000000       0.00000000       3.41333333       0.00000000       0.00000000      -0.67100126
2
Properties=species:S:1:pos:R:3:forces:R:3 energy=-2.510653332632892 pbc="F F F"
S        0.00000000       0.00000000       0.00000000       0.00000000       0.00000000       0.57072341
S        0.00000000       0.00000000       3.47212121       0.00000000       0.00000000      -0.57072341
2
Properties=species:S:1:pos:R:3:forces:R:3 energy=-2.4797928537116585 pbc="F F F"
S        0.00000000       0.00000000       0.00000000       0.00000000       0.00000000       0.48104128
S        0.00000000       0.00000000       3.53090909       0.00000000       0.00000000      -0.48104128
2
Properties=species:S:1:pos:R:3:forces:R:3 energy=-2.453863622608519 pbc="F F F"
S        0.00000000       0.00000000       0.00000000       0.00000000       0.00000000       0.40314123
S        0.00000000       0.00000000       3.58969697       0.00000000       0.00000000      -0.40314123
2
Properties=species:S:1:pos:R:3:forces:R:3 energy=-2.432169305721771 pbc="F F F"
S        0.00000000       0.00000000       0.00000000       0.00000000       0.00000000       0.33666715
S        0.00000000       0.00000000       3.64848485       0.00000000       0.00000000      -0.33666715
2
Properties=species:S:1:pos:R:3:forces:R:3 energy=-2.414086368647795 pbc="F F F"
S        0.00000000       0.00000000       0.00000000       0.00000000       0.00000000       0.27997509
S        0.00000000       0.00000000       3.70727273       0.00000000       0.00000000      -0.27997509
2
Properties=species:S:1:pos:R:3:forces:R:3 energy=-2.3990963078706624 pbc="F F F"
S        0.00000000       0.00000000       0.00000000       0.00000000       0.00000000       0.23124288
S        0.00000000       0.00000000       3.76606061       0.00000000       0.00000000      -0.23124288
2
Properties=species:S:1:pos:R:3:forces:R:3 energy=-2.386768861675201 pbc="F F F"
S        0.00000000       0.00000000       0.00000000       0.00000000       0.00000000       0.18911986
S        0.00000000       0.00000000       3.82484848       0.00000000       0.00000000      -0.18911986
2
Properties=species:S:1:pos:R:3:forces:R:3 energy=-2.3767480456530534 pbc="F F F"
S        0.00000000       0.00000000       0.00000000       0.00000000       0.00000000       0.15272394
S        0.00000000       0.00000000       3.88363636       0.00000000       0.00000000      -0.15272394
2
Properties=species:S:1:pos:R:3:forces:R:3 energy=-2.3687138806010473 pbc="F F F"
S        0.00000000       0.00000000       0.00000000       0.00000000       0.00000000       0.12136819
S        0.00000000       0.00000000       3.94242424       0.00000000       0.00000000      -0.12136819
2
Properties=species:S:1:pos:R:3:forces:R:3 energy=-2.362390845709334 pbc="F F F"
S        0.00000000       0.00000000       0.00000000       0.00000000       0.00000000       0.09436167
S        0.00000000       0.00000000       4.00121212       0.00000000       0.00000000      -0.09436167
2
Properties=species:S:1:pos:R:3:forces:R:3 energy=-2.3575468694501853 pbc="F F F"
S        0.00000000       0.00000000       0.00000000       0.00000000       0.00000000       0.07101639
S        0.00000000       0.00000000       4.06000000       0.00000000       0.00000000      -0.07101639
2
Properties=species:S:1:pos:R:3:forces:R:3 energy=-2.3539817714445985 pbc="F F F"
S        0.00000000       0.00000000       0.00000000       0.00000000       0.00000000       0.05076857
S        0.00000000       0.00000000       4.11878788       0.00000000       0.00000000      -0.05076857
2
Properties=species:S:1:pos:R:3:forces:R:3 energy=-2.3515243935197927 pbc="F F F"
S        0.00000000       0.00000000       0.00000000       0.00000000       0.00000000       0.03328065
S        0.00000000       0.00000000       4.17757576       0.00000000       0.00000000      -0.03328065
2
Properties=species:S:1:pos:R:3:forces:R:3 energy=-2.35001730449019 pbc="F F F"
S        0.00000000       0.00000000       0.00000000       0.00000000       0.00000000       0.01843330
S        0.00000000       0.00000000       4.23636364       0.00000000       0.00000000      -0.01843330
2
Properties=species:S:1:pos:R:3:forces:R:3 energy=-2.34930583290278 pbc="F F F"
S        0.00000000       0.00000000       0.00000000       0.00000000       0.00000000       0.00620192
S        0.00000000       0.00000000       4.29515152       0.00000000       0.00000000      -0.00620192
2
Properties=species:S:1:pos:R:3:forces:R:3 energy=-2.349239060309208 pbc="F F F"
S        0.00000000       0.00000000       0.00000000       0.00000000       0.00000000      -0.00348963
S        0.00000000       0.00000000       4.35393939       0.00000000       0.00000000       0.00348963
2
Properties=species:S:1:pos:R:3:forces:R:3 energy=-2.3496702759281844 pbc="F F F"
S        0.00000000       0.00000000       0.00000000       0.00000000       0.00000000      -0.01085788
S        0.00000000       0.00000000       4.41272727       0.00000000       0.00000000       0.01085788
2
Properties=species:S:1:pos:R:3:forces:R:3 energy=-2.350476173676871 pbc="F F F"
S        0.00000000       0.00000000       0.00000000       0.00000000       0.00000000      -0.01623104
S        0.00000000       0.00000000       4.47151515       0.00000000       0.00000000       0.01623104
2
Properties=species:S:1:pos:R:3:forces:R:3 energy=-2.3515444449013048 pbc="F F F"
S        0.00000000       0.00000000       0.00000000       0.00000000       0.00000000      -0.01996193
S        0.00000000       0.00000000       4.53030303       0.00000000       0.00000000       0.01996193
2
Properties=species:S:1:pos:R:3:forces:R:3 energy=-2.352796737044032 pbc="F F F"
S        0.00000000       0.00000000       0.00000000       0.00000000       0.00000000      -0.02233453
S        0.00000000       0.00000000       4.58909091       0.00000000       0.00000000       0.02233453
2
Properties=species:S:1:pos:R:3:forces:R:3 energy=-2.354149632984648 pbc="F F F"
S        0.00000000       0.00000000       0.00000000       0.00000000       0.00000000      -0.02351551
S        0.00000000       0.00000000       4.64787879       0.00000000       0.00000000       0.02351551
2
Properties=species:S:1:pos:R:3:forces:R:3 energy=-2.3555385039850805 pbc="F F F"
S        0.00000000       0.00000000       0.00000000       0.00000000       0.00000000      -0.02356293
S        0.00000000       0.00000000       4.70666667       0.00000000       0.00000000       0.02356293
2
Properties=species:S:1:pos:R:3:forces:R:3 energy=-2.3568994762007365 pbc="F F F"
S        0.00000000       0.00000000       0.00000000       0.00000000       0.00000000      -0.02246919
S        0.00000000       0.00000000       4.76545455       0.00000000       0.00000000       0.02246919
2
Properties=species:S:1:pos:R:3:forces:R:3 energy=-2.3581594551140412 pbc="F F F"
S        0.00000000       0.00000000       0.00000000       0.00000000       0.00000000      -0.02021488
S        0.00000000       0.00000000       4.82424242       0.00000000       0.00000000       0.02021488
2
Properties=species:S:1:pos:R:3:forces:R:3 energy=-2.359253331269913 pbc="F F F"
S        0.00000000       0.00000000       0.00000000       0.00000000       0.00000000      -0.01681816
S        0.00000000       0.00000000       4.88303030       0.00000000       0.00000000       0.01681816
2
Properties=species:S:1:pos:R:3:forces:R:3 energy=-2.360114473626908 pbc="F F F"
S        0.00000000       0.00000000       0.00000000       0.00000000       0.00000000      -0.01236430
S        0.00000000       0.00000000       4.94181818       0.00000000       0.00000000       0.01236430
2
Properties=species:S:1:pos:R:3:forces:R:3 energy=-2.360689067142146 pbc="F F F"
S        0.00000000       0.00000000       0.00000000       0.00000000       0.00000000      -0.00703380
S        0.00000000       0.00000000       5.00060606       0.00000000       0.00000000       0.00703380
2
Properties=species:S:1:pos:R:3:forces:R:3 energy=-2.3609313958768334 pbc="F F F"
S        0.00000000       0.00000000       0.00000000       0.00000000       0.00000000      -0.00110634
S        0.00000000       0.00000000       5.05939394       0.00000000       0.00000000       0.00110634
2
Properties=species:S:1:pos:R:3:forces:R:3 energy=-2.3608128870631644 pbc="F F F"
S        0.00000000       0.00000000       0.00000000       0.00000000       0.00000000       0.00503866
S        0.00000000       0.00000000       5.11818182       0.00000000       0.00000000      -0.00503866
2
Properties=species:S:1:pos:R:3:forces:R:3 energy=-2.3603412237924437 pbc="F F F"
S        0.00000000       0.00000000       0.00000000       0.00000000       0.00000000       0.01094785
S        0.00000000       0.00000000       5.17696970       0.00000000       0.00000000      -0.01094785
2
Properties=species:S:1:pos:R:3:forces:R:3 energy=-2.3595403364653977 pbc="F F F"
S        0.00000000       0.00000000       0.00000000       0.00000000       0.00000000       0.01613671
S        0.00000000       0.00000000       5.23575758       0.00000000       0.00000000      -0.01613671
2
Properties=species:S:1:pos:R:3:forces:R:3 energy=-2.358468513892678 pbc="F F F"
S        0.00000000       0.00000000       0.00000000       0.00000000       0.00000000       0.02015374
S        0.00000000       0.00000000       5.29454545       0.00000000       0.00000000      -0.02015374
2
Properties=species:S:1:pos:R:3:forces:R:3 energy=-2.3572022197378564 pbc="F F F"
S        0.00000000       0.00000000       0.00000000       0.00000000       0.00000000       0.02265138
S        0.00000000       0.00000000       5.35333333       0.00000000       0.00000000      -0.02265138
2
Properties=species:S:1:pos:R:3:forces:R:3 energy=-2.3558389495805985 pbc="F F F"
S        0.00000000       0.00000000       0.00000000       0.00000000       0.00000000       0.02345460
S        0.00000000       0.00000000       5.41212121       0.00000000       0.00000000      -0.02345460
2
Properties=species:S:1:pos:R:3:forces:R:3 energy=-2.3544772021721068 pbc="F F F"
S        0.00000000       0.00000000       0.00000000       0.00000000       0.00000000       0.02260157
S        0.00000000       0.00000000       5.47090909       0.00000000       0.00000000      -0.02260157
2
Properties=species:S:1:pos:R:3:forces:R:3 energy=-2.3532069537793348 pbc="F F F"
S        0.00000000       0.00000000       0.00000000       0.00000000       0.00000000       0.02034463
S        0.00000000       0.00000000       5.52969697       0.00000000       0.00000000      -0.02034463
2
Properties=species:S:1:pos:R:3:forces:R:3 energy=-2.3521053672445307 pbc="F F F"
S        0.00000000       0.00000000       0.00000000       0.00000000       0.00000000       0.01710851
S        0.00000000       0.00000000       5.58848485       0.00000000       0.00000000      -0.01710851
2
Properties=species:S:1:pos:R:3:forces:R:3 energy=-2.351205316575027 pbc="F F F"
S        0.00000000       0.00000000       0.00000000       0.00000000       0.00000000       0.01341982
S        0.00000000       0.00000000       5.64727273       0.00000000       0.00000000      -0.01341982
2
Properties=species:S:1:pos:R:3:forces:R:3 energy=-2.350525902145501 pbc="F F F"
S        0.00000000       0.00000000       0.00000000       0.00000000       0.00000000       0.00980566
S        0.00000000       0.00000000       5.70606061       0.00000000       0.00000000      -0.00980566
2
Properties=species:S:1:pos:R:3:forces:R:3 energy=-2.350042894119755 pbc="F F F"
S        0.00000000       0.00000000       0.00000000       0.00000000       0.00000000       0.00670867
S        0.00000000       0.00000000       5.76484848       0.00000000       0.00000000      -0.00670867
2
Properties=species:S:1:pos:R:3:forces:R:3 energy=-2.3497211478740057 pbc="F F F"
S        0.00000000       0.00000000       0.00000000       0.00000000       0.00000000       0.00441350
S        0.00000000       0.00000000       5.82363636       0.00000000       0.00000000      -0.00441350
2
Properties=species:S:1:pos:R:3:forces:R:3 energy=-2.349506496379275 pbc="F F F"
S        0.00000000       0.00000000       0.00000000       0.00000000       0.00000000       0.00299991
S        0.00000000       0.00000000       5.88242424       0.00000000       0.00000000      -0.00299991
2
Properties=species:S:1:pos:R:3:forces:R:3 energy=-2.349352454864147 pbc="F F F"
S        0.00000000       0.00000000       0.00000000       0.00000000       0.00000000       0.00233534
S        0.00000000       0.00000000       5.94121212       0.00000000       0.00000000      -0.00233534
2
Properties=species:S:1:pos:R:3:forces:R:3 energy=-2.349221644594622 pbc="F F F"
S        0.00000000       0.00000000       0.00000000       0.00000000       0.00000000       0.00211222
S        0.00000000       0.00000000       6.00000000       0.00000000       0.00000000      -0.00211222
