2
Properties=species:S:1:pos:R:3:forces:R:3 energy=-5790120.554237924 pbc="F F F"
Sb       0.00000000       0.00000000       0.00000000       0.00000000       0.00000000 46341744.00000000
Sb       0.00000000       0.00000000       0.18000000       0.00000000       0.00000000 -46341744.00000000
2
Properties=species:S:1:pos:R:3:forces:R:3 energy=-3366918.804237924 pbc="F F F"
Sb       0.00000000       0.00000000       0.00000000       0.00000000       0.00000000 35030524.00000000
Sb       0.00000000       0.00000000       0.23878788       0.00000000       0.00000000 -35030524.00000000
2
Properties=species:S:1:pos:R:3:forces:R:3 energy=-1674788.0542379238 pbc="F F F"
Sb       0.00000000       0.00000000       0.00000000       0.00000000       0.00000000 22138468.00000000
Sb       0.00000000       0.00000000       0.29757576       0.00000000       0.00000000 -22138468.00000000
2
Properties=species:S:1:pos:R:3:forces:R:3 energy=-746733.8667379176 pbc="F F F"
Sb       0.00000000       0.00000000       0.00000000       0.00000000       0.00000000 11174662.00000000
Sb       0.00000000       0.00000000       0.35636364       0.00000000       0.00000000 -11174662.00000000
2
Properties=species:S:1:pos:R:3:forces:R:3 energy=-268564.1479879176 pbc="F F F"
Sb       0.00000000       0.00000000       0.00000000       0.00000000       0.00000000 5094989.00000000
Sb       0.00000000       0.00000000       0.41515152       0.00000000       0.00000000 -5094989.00000000
2
Properties=species:S:1:pos:R:3:forces:R:3 energy=-67684.00736289858 pbc="F F F"
Sb       0.00000000       0.00000000       0.00000000       0.00000000       0.00000000 2417145.00000000
Sb       0.00000000       0.00000000       0.47393939       0.00000000       0.00000000 -2417145.00000000
2
Properties=species:S:1:pos:R:3:forces:R:3 energy=11973.004355883093 pbc="F F F"
Sb       0.00000000       0.00000000       0.00000000       0.00000000       0.00000000  672060.81250000
Sb       0.00000000       0.00000000       0.53272727       0.00000000       0.00000000 -672060.81250000
2
Properties=species:S:1:pos:R:3:forces:R:3 energy=27774.85005905878 pbc="F F F"
Sb       0.00000000       0.00000000       0.00000000       0.00000000       0.00000000  -96523.92187500
Sb       0.00000000       0.00000000       0.59151515       0.00000000       0.00000000   96523.92187500
2
Properties=species:S:1:pos:R:3:forces:R:3 energy=19552.576621634806 pbc="F F F"
Sb       0.00000000       0.00000000       0.00000000       0.00000000       0.00000000 -156229.89062500
Sb       0.00000000       0.00000000       0.65030303       0.00000000       0.00000000  156229.89062500
2
Properties=species:S:1:pos:R:3:forces:R:3 energy=12777.429160830356 pbc="F F F"
Sb       0.00000000       0.00000000       0.00000000       0.00000000       0.00000000 -101081.20312500
Sb       0.00000000       0.00000000       0.70909091       0.00000000       0.00000000  101081.20312500
2
Properties=species:S:1:pos:R:3:forces:R:3 energy=7282.25630946426 pbc="F F F"
Sb       0.00000000       0.00000000       0.00000000       0.00000000       0.00000000  -74070.74218750
Sb       0.00000000       0.00000000       0.76787879       0.00000000       0.00000000   74070.74218750
2
Properties=species:S:1:pos:R:3:forces:R:3 energy=3793.1054308431144 pbc="F F F"
Sb       0.00000000       0.00000000       0.00000000       0.00000000       0.00000000  -44553.76171875
Sb       0.00000000       0.00000000       0.82666667       0.00000000       0.00000000   44553.76171875
2
Properties=species:S:1:pos:R:3:forces:R:3 energy=1713.6431509814936 pbc="F F F"
Sb       0.00000000       0.00000000       0.00000000       0.00000000       0.00000000  -24037.94531250
Sb       0.00000000       0.00000000       0.88545455       0.00000000       0.00000000   24037.94531250
2
Properties=species:S:1:pos:R:3:forces:R:3 energy=728.6405880878103 pbc="F F F"
Sb       0.00000000       0.00000000       0.00000000       0.00000000       0.00000000  -11088.74707031
Sb       0.00000000       0.00000000       0.94424242       0.00000000       0.00000000   11088.74707031
2
Properties=species:S:1:pos:R:3:forces:R:3 energy=312.3927251165703 pbc="F F F"
Sb       0.00000000       0.00000000       0.00000000       0.00000000       0.00000000   -3887.57763672
Sb       0.00000000       0.00000000       1.00303030       0.00000000       0.00000000    3887.57763672
2
Properties=species:S:1:pos:R:3:forces:R:3 energy=172.56821752663765 pbc="F F F"
Sb       0.00000000       0.00000000       0.00000000       0.00000000       0.00000000   -1162.11926270
Sb       0.00000000       0.00000000       1.06181818       0.00000000       0.00000000    1162.11926270
2
Properties=species:S:1:pos:R:3:forces:R:3 energy=129.39255977247012 pbc="F F F"
Sb       0.00000000       0.00000000       0.00000000       0.00000000       0.00000000    -558.18194580
Sb       0.00000000       0.00000000       1.12060606       0.00000000       0.00000000     558.18194580
2
Properties=species:S:1:pos:R:3:forces:R:3 energy=100.09783050134845 pbc="F F F"
Sb       0.00000000       0.00000000       0.00000000       0.00000000       0.00000000    -412.73141479
Sb       0.00000000       0.00000000       1.17939394       0.00000000       0.00000000     412.73141479
2
Properties=species:S:1:pos:R:3:forces:R:3 energy=80.60688901920882 pbc="F F F"
Sb       0.00000000       0.00000000       0.00000000       0.00000000       0.00000000    -293.79095459
Sb       0.00000000       0.00000000       1.23818182       0.00000000       0.00000000     293.79095459
2
Properties=species:S:1:pos:R:3:forces:R:3 energy=60.225914486723646 pbc="F F F"
Sb       0.00000000       0.00000000       0.00000000       0.00000000       0.00000000    -347.77090454
Sb       0.00000000       0.00000000       1.29696970       0.00000000       0.00000000     347.77090454
2
Properties=species:S:1:pos:R:3:forces:R:3 energy=44.8351293701694 pbc="F F F"
Sb       0.00000000       0.00000000       0.00000000       0.00000000       0.00000000    -188.95225525
Sb       0.00000000       0.00000000       1.35575758       0.00000000       0.00000000     188.95225525
2
Properties=species:S:1:pos:R:3:forces:R:3 energy=35.38697982449519 pbc="F F F"
Sb       0.00000000       0.00000000       0.00000000       0.00000000       0.00000000    -138.06535339
Sb       0.00000000       0.00000000       1.41454545       0.00000000       0.00000000     138.06535339
2
Properties=species:S:1:pos:R:3:forces:R:3 energy=28.8593255558476 pbc="F F F"
Sb       0.00000000       0.00000000       0.00000000       0.00000000       0.00000000     -92.42999268
Sb       0.00000000       0.00000000       1.47333333       0.00000000       0.00000000      92.42999268
2
Properties=species:S:1:pos:R:3:forces:R:3 energy=24.140630747301913 pbc="F F F"
Sb       0.00000000       0.00000000       0.00000000       0.00000000       0.00000000     -72.60523224
Sb       0.00000000       0.00000000       1.53212121       0.00000000       0.00000000      72.60523224
2
Properties=species:S:1:pos:R:3:forces:R:3 energy=19.99438253347345 pbc="F F F"
Sb       0.00000000       0.00000000       0.00000000       0.00000000       0.00000000     -67.81626892
Sb       0.00000000       0.00000000       1.59090909       0.00000000       0.00000000      67.81626892
2
Properties=species:S:1:pos:R:3:forces:R:3 energy=16.16035401510399 pbc="F F F"
Sb       0.00000000       0.00000000       0.00000000       0.00000000       0.00000000     -62.28689194
Sb       0.00000000       0.00000000       1.64969697       0.00000000       0.00000000      62.28689194
2
Properties=species:S:1:pos:R:3:forces:R:3 energy=12.604148383731614 pbc="F F F"
Sb       0.00000000       0.00000000       0.00000000       0.00000000       0.00000000     -58.96036530
Sb       0.00000000       0.00000000       1.70848485       0.00000000       0.00000000      58.96036530
2
Properties=species:S:1:pos:R:3:forces:R:3 energy=9.311432307190682 pbc="F F F"
Sb       0.00000000       0.00000000       0.00000000       0.00000000       0.00000000     -52.84698105
Sb       0.00000000       0.00000000       1.76727273       0.00000000       0.00000000      52.84698105
2
Properties=species:S:1:pos:R:3:forces:R:3 energy=6.348892357045581 pbc="F F F"
Sb       0.00000000       0.00000000       0.00000000       0.00000000       0.00000000     -47.66526413
Sb       0.00000000       0.00000000       1.82606061       0.00000000       0.00000000      47.66526413
2
Properties=species:S:1:pos:R:3:forces:R:3 energy=3.818469188841508 pbc="F F F"
Sb       0.00000000       0.00000000       0.00000000       0.00000000       0.00000000     -38.51968765
Sb       0.00000000       0.00000000       1.88484848       0.00000000       0.00000000      38.51968765
2
Properties=species:S:1:pos:R:3:forces:R:3 energy=1.777644623682496 pbc="F F F"
Sb       0.00000000       0.00000000       0.00000000       0.00000000       0.00000000     -31.12173271
Sb       0.00000000       0.00000000       1.94363636       0.00000000       0.00000000      31.12173271
2
Properties=species:S:1:pos:R:3:forces:R:3 energy=0.13945749189635592 pbc="F F F"
Sb       0.00000000       0.00000000       0.00000000       0.00000000       0.00000000     -24.72633171
Sb       0.00000000       0.00000000       2.00242424       0.00000000       0.00000000      24.72633171
2
Properties=species:S:1:pos:R:3:forces:R:3 energy=-1.1405317854018995 pbc="F F F"
Sb       0.00000000       0.00000000       0.00000000       0.00000000       0.00000000     -18.98838234
Sb       0.00000000       0.00000000       2.06121212       0.00000000       0.00000000      18.98838234
2
Properties=species:S:1:pos:R:3:forces:R:3 energy=-2.1221135993956453 pbc="F F F"
Sb       0.00000000       0.00000000       0.00000000       0.00000000       0.00000000     -14.64979839
Sb       0.00000000       0.00000000       2.12000000       0.00000000       0.00000000      14.64979839
2
Properties=species:S:1:pos:R:3:forces:R:3 energy=-2.889733079820264 pbc="F F F"
Sb       0.00000000       0.00000000       0.00000000       0.00000000       0.00000000     -11.65474796
Sb       0.00000000       0.00000000       2.17878788       0.00000000       0.00000000      11.65474796
2
Properties=species:S:1:pos:R:3:forces:R:3 energy=-3.5011715445205134 pbc="F F F"
Sb       0.00000000       0.00000000       0.00000000       0.00000000       0.00000000      -9.15809727
Sb       0.00000000       0.00000000       2.23757576       0.00000000       0.00000000       9.15809727
2
Properties=species:S:1:pos:R:3:forces:R:3 energy=-3.974179059633464 pbc="F F F"
Sb       0.00000000       0.00000000       0.00000000       0.00000000       0.00000000      -7.03283358
Sb       0.00000000       0.00000000       2.29636364       0.00000000       0.00000000       7.03283358
2
Properties=species:S:1:pos:R:3:forces:R:3 energy=-4.3375491195029285 pbc="F F F"
Sb       0.00000000       0.00000000       0.00000000       0.00000000       0.00000000      -5.38622999
Sb       0.00000000       0.00000000       2.35515152       0.00000000       0.00000000       5.38622999
2
Properties=species:S:1:pos:R:3:forces:R:3 energy=-4.6117243819923965 pbc="F F F"
Sb       0.00000000       0.00000000       0.00000000       0.00000000       0.00000000      -3.95581150
Sb       0.00000000       0.00000000       2.41393939       0.00000000       0.00000000       3.95581150
2
Properties=species:S:1:pos:R:3:forces:R:3 energy=-4.803830791284844 pbc="F F F"
Sb       0.00000000       0.00000000       0.00000000       0.00000000       0.00000000      -2.59957957
Sb       0.00000000       0.00000000       2.47272727       0.00000000       0.00000000       2.59957957
2
Properties=species:S:1:pos:R:3:forces:R:3 energy=-4.920764179620549 pbc="F F F"
Sb       0.00000000       0.00000000       0.00000000       0.00000000       0.00000000      -1.41073513
Sb       0.00000000       0.00000000       2.53151515       0.00000000       0.00000000       1.41073513
2
Properties=species:S:1:pos:R:3:forces:R:3 energy=-4.97376390792079 pbc="F F F"
Sb       0.00000000       0.00000000       0.00000000       0.00000000       0.00000000      -0.42942223
Sb       0.00000000       0.00000000       2.59030303       0.00000000       0.00000000       0.42942223
2
Properties=species:S:1:pos:R:3:forces:R:3 energy=-4.97554225541032 pbc="F F F"
Sb       0.00000000       0.00000000       0.00000000       0.00000000       0.00000000       0.33481929
Sb       0.00000000       0.00000000       2.64909091       0.00000000       0.00000000      -0.33481929
2
Properties=species:S:1:pos:R:3:forces:R:3 energy=-4.938009518234589 pbc="F F F"
Sb       0.00000000       0.00000000       0.00000000       0.00000000       0.00000000       0.91484135
Sb       0.00000000       0.00000000       2.70787879       0.00000000       0.00000000      -0.91484135
2
Properties=species:S:1:pos:R:3:forces:R:3 energy=-4.870830076852622 pbc="F F F"
Sb       0.00000000       0.00000000       0.00000000       0.00000000       0.00000000       1.34864938
Sb       0.00000000       0.00000000       2.76666667       0.00000000       0.00000000      -1.34864938
2
Properties=species:S:1:pos:R:3:forces:R:3 energy=-4.781882193770413 pbc="F F F"
Sb       0.00000000       0.00000000       0.00000000       0.00000000       0.00000000       1.65762699
Sb       0.00000000       0.00000000       2.82545455       0.00000000       0.00000000      -1.65762699
2
Properties=species:S:1:pos:R:3:forces:R:3 energy=-4.67810343315113 pbc="F F F"
Sb       0.00000000       0.00000000       0.00000000       0.00000000       0.00000000       1.85615969
Sb       0.00000000       0.00000000       2.88424242       0.00000000       0.00000000      -1.85615969
2
Properties=species:S:1:pos:R:3:forces:R:3 energy=-4.565357997050991 pbc="F F F"
Sb       0.00000000       0.00000000       0.00000000       0.00000000       0.00000000       1.96751189
Sb       0.00000000       0.00000000       2.94303030       0.00000000       0.00000000      -1.96751189
2
Properties=species:S:1:pos:R:3:forces:R:3 energy=-4.447870386931297 pbc="F F F"
Sb       0.00000000       0.00000000       0.00000000       0.00000000       0.00000000       2.02260184
Sb       0.00000000       0.00000000       3.00181818       0.00000000       0.00000000      -2.02260184
2
Properties=species:S:1:pos:R:3:forces:R:3 energy=-4.328156060874018 pbc="F F F"
Sb       0.00000000       0.00000000       0.00000000       0.00000000       0.00000000       2.04610682
Sb       0.00000000       0.00000000       3.06060606       0.00000000       0.00000000      -2.04610682
2
Properties=species:S:1:pos:R:3:forces:R:3 energy=-4.207745511318736 pbc="F F F"
Sb       0.00000000       0.00000000       0.00000000       0.00000000       0.00000000       2.04668641
Sb       0.00000000       0.00000000       3.11939394       0.00000000       0.00000000      -2.04668641
2
Properties=species:S:1:pos:R:3:forces:R:3 energy=-4.087889125257291 pbc="F F F"
Sb       0.00000000       0.00000000       0.00000000       0.00000000       0.00000000       2.02821183
Sb       0.00000000       0.00000000       3.17818182       0.00000000       0.00000000      -2.02821183
2
Properties=species:S:1:pos:R:3:forces:R:3 energy=-3.969535584489208 pbc="F F F"
Sb       0.00000000       0.00000000       0.00000000       0.00000000       0.00000000       1.99634838
Sb       0.00000000       0.00000000       3.23696970       0.00000000       0.00000000      -1.99634838
2
Properties=species:S:1:pos:R:3:forces:R:3 energy=-3.853397734424174 pbc="F F F"
Sb       0.00000000       0.00000000       0.00000000       0.00000000       0.00000000       1.95265424
Sb       0.00000000       0.00000000       3.29575758       0.00000000       0.00000000      -1.95265424
2
Properties=species:S:1:pos:R:3:forces:R:3 energy=-3.7402168852977558 pbc="F F F"
Sb       0.00000000       0.00000000       0.00000000       0.00000000       0.00000000       1.89550209
Sb       0.00000000       0.00000000       3.35454545       0.00000000       0.00000000      -1.89550209
2
Properties=species:S:1:pos:R:3:forces:R:3 energy=-3.630811172297174 pbc="F F F"
Sb       0.00000000       0.00000000       0.00000000       0.00000000       0.00000000       1.82417834
Sb       0.00000000       0.00000000       3.41333333       0.00000000       0.00000000      -1.82417834
2
Properties=species:S:1:pos:R:3:forces:R:3 energy=-3.525981281384165 pbc="F F F"
Sb       0.00000000       0.00000000       0.00000000       0.00000000       0.00000000       1.74042070
Sb       0.00000000       0.00000000       3.47212121       0.00000000       0.00000000      -1.74042070
2
Properties=species:S:1:pos:R:3:forces:R:3 energy=-3.4263533131199817 pbc="F F F"
Sb       0.00000000       0.00000000       0.00000000       0.00000000       0.00000000       1.64782035
Sb       0.00000000       0.00000000       3.53090909       0.00000000       0.00000000      -1.64782035
2
Properties=species:S:1:pos:R:3:forces:R:3 energy=-3.3323437989702573 pbc="F F F"
Sb       0.00000000       0.00000000       0.00000000       0.00000000       0.00000000       1.54973114
Sb       0.00000000       0.00000000       3.58969697       0.00000000       0.00000000      -1.54973114
2
Properties=species:S:1:pos:R:3:forces:R:3 energy=-3.2442110730670515 pbc="F F F"
Sb       0.00000000       0.00000000       0.00000000       0.00000000       0.00000000       1.44812107
Sb       0.00000000       0.00000000       3.64848485       0.00000000       0.00000000      -1.44812107
2
Properties=species:S:1:pos:R:3:forces:R:3 energy=-3.1621204222680617 pbc="F F F"
Sb       0.00000000       0.00000000       0.00000000       0.00000000       0.00000000       1.34441042
Sb       0.00000000       0.00000000       3.70727273       0.00000000       0.00000000      -1.34441042
2
Properties=species:S:1:pos:R:3:forces:R:3 energy=-3.0861417428001543 pbc="F F F"
Sb       0.00000000       0.00000000       0.00000000       0.00000000       0.00000000       1.24061775
Sb       0.00000000       0.00000000       3.76606061       0.00000000       0.00000000      -1.24061775
2
Properties=species:S:1:pos:R:3:forces:R:3 energy=-3.016204254904608 pbc="F F F"
Sb       0.00000000       0.00000000       0.00000000       0.00000000       0.00000000       1.13940954
Sb       0.00000000       0.00000000       3.82484848       0.00000000       0.00000000      -1.13940954
2
Properties=species:S:1:pos:R:3:forces:R:3 energy=-2.9520777373016043 pbc="F F F"
Sb       0.00000000       0.00000000       0.00000000       0.00000000       0.00000000       1.04318023
Sb       0.00000000       0.00000000       3.88363636       0.00000000       0.00000000      -1.04318023
2
Properties=species:S:1:pos:R:3:forces:R:3 energy=-2.89342712488499 pbc="F F F"
Sb       0.00000000       0.00000000       0.00000000       0.00000000       0.00000000       0.95320708
Sb       0.00000000       0.00000000       3.94242424       0.00000000       0.00000000      -0.95320708
2
Properties=species:S:1:pos:R:3:forces:R:3 energy=-2.8398821949756257 pbc="F F F"
Sb       0.00000000       0.00000000       0.00000000       0.00000000       0.00000000       0.86948460
Sb       0.00000000       0.00000000       4.00121212       0.00000000       0.00000000      -0.86948460
2
Properties=species:S:1:pos:R:3:forces:R:3 energy=-2.7910885112057495 pbc="F F F"
Sb       0.00000000       0.00000000       0.00000000       0.00000000       0.00000000       0.79127079
Sb       0.00000000       0.00000000       4.06000000       0.00000000       0.00000000      -0.79127079
2
Properties=species:S:1:pos:R:3:forces:R:3 energy=-2.7467533234312236 pbc="F F F"
Sb       0.00000000       0.00000000       0.00000000       0.00000000       0.00000000       0.71785772
Sb       0.00000000       0.00000000       4.11878788       0.00000000       0.00000000      -0.71785772
2
Properties=species:S:1:pos:R:3:forces:R:3 energy=-2.706596656244861 pbc="F F F"
Sb       0.00000000       0.00000000       0.00000000       0.00000000       0.00000000       0.64909768
Sb       0.00000000       0.00000000       4.17757576       0.00000000       0.00000000      -0.64909768
2
Properties=species:S:1:pos:R:3:forces:R:3 energy=-2.6703345594872636 pbc="F F F"
Sb       0.00000000       0.00000000       0.00000000       0.00000000       0.00000000       0.58550876
Sb       0.00000000       0.00000000       4.23636364       0.00000000       0.00000000      -0.58550876
2
Properties=species:S:1:pos:R:3:forces:R:3 energy=-2.637634771894579 pbc="F F F"
Sb       0.00000000       0.00000000       0.00000000       0.00000000       0.00000000       0.52803391
Sb       0.00000000       0.00000000       4.29515152       0.00000000       0.00000000      -0.52803391
2
Properties=species:S:1:pos:R:3:forces:R:3 energy=-2.6081115075679815 pbc="F F F"
Sb       0.00000000       0.00000000       0.00000000       0.00000000       0.00000000       0.47762761
Sb       0.00000000       0.00000000       4.35393939       0.00000000       0.00000000      -0.47762761
2
Properties=species:S:1:pos:R:3:forces:R:3 energy=-2.5813295574387642 pbc="F F F"
Sb       0.00000000       0.00000000       0.00000000       0.00000000       0.00000000       0.43484342
Sb       0.00000000       0.00000000       4.41272727       0.00000000       0.00000000      -0.43484342
2
Properties=species:S:1:pos:R:3:forces:R:3 energy=-2.5568376298555506 pbc="F F F"
Sb       0.00000000       0.00000000       0.00000000       0.00000000       0.00000000       0.39956868
Sb       0.00000000       0.00000000       4.47151515       0.00000000       0.00000000      -0.39956868
2
Properties=species:S:1:pos:R:3:forces:R:3 energy=-2.534216485794694 pbc="F F F"
Sb       0.00000000       0.00000000       0.00000000       0.00000000       0.00000000       0.37095979
Sb       0.00000000       0.00000000       4.53030303       0.00000000       0.00000000      -0.37095979
2
Properties=species:S:1:pos:R:3:forces:R:3 energy=-2.5131164062551594 pbc="F F F"
Sb       0.00000000       0.00000000       0.00000000       0.00000000       0.00000000       0.34761652
Sb       0.00000000       0.00000000       4.58909091       0.00000000       0.00000000      -0.34761652
2
Properties=species:S:1:pos:R:3:forces:R:3 energy=-2.4932752835601346 pbc="F F F"
Sb       0.00000000       0.00000000       0.00000000       0.00000000       0.00000000       0.32793060
Sb       0.00000000       0.00000000       4.64787879       0.00000000       0.00000000      -0.32793060
2
Properties=species:S:1:pos:R:3:forces:R:3 energy=-2.474517569480229 pbc="F F F"
Sb       0.00000000       0.00000000       0.00000000       0.00000000       0.00000000       0.31048161
Sb       0.00000000       0.00000000       4.70666667       0.00000000       0.00000000      -0.31048161
2
Properties=species:S:1:pos:R:3:forces:R:3 energy=-2.4567432161119895 pbc="F F F"
Sb       0.00000000       0.00000000       0.00000000       0.00000000       0.00000000       0.29436201
Sb       0.00000000       0.00000000       4.76545455       0.00000000       0.00000000      -0.29436201
2
Properties=species:S:1:pos:R:3:forces:R:3 energy=-2.4398856571871845 pbc="F F F"
Sb       0.00000000       0.00000000       0.00000000       0.00000000       0.00000000       0.27929592
Sb       0.00000000       0.00000000       4.82424242       0.00000000       0.00000000      -0.27929592
2
Properties=species:S:1:pos:R:3:forces:R:3 energy=-2.4238807851471167 pbc="F F F"
Sb       0.00000000       0.00000000       0.00000000       0.00000000       0.00000000       0.26553467
Sb       0.00000000       0.00000000       4.88303030       0.00000000       0.00000000      -0.26553467
2
Properties=species:S:1:pos:R:3:forces:R:3 energy=-2.408631555903055 pbc="F F F"
Sb       0.00000000       0.00000000       0.00000000       0.00000000       0.00000000       0.25357559
Sb       0.00000000       0.00000000       4.94181818       0.00000000       0.00000000      -0.25357559
2
Properties=species:S:1:pos:R:3:forces:R:3 energy=-2.3940213877939955 pbc="F F F"
Sb       0.00000000       0.00000000       0.00000000       0.00000000       0.00000000       0.24378805
Sb       0.00000000       0.00000000       5.00060606       0.00000000       0.00000000      -0.24378805
2
Properties=species:S:1:pos:R:3:forces:R:3 energy=-2.3799246393328533 pbc="F F F"
Sb       0.00000000       0.00000000       0.00000000       0.00000000       0.00000000       0.23609987
Sb       0.00000000       0.00000000       5.05939394       0.00000000       0.00000000      -0.23609987
2
Properties=species:S:1:pos:R:3:forces:R:3 energy=-2.366233742991059 pbc="F F F"
Sb       0.00000000       0.00000000       0.00000000       0.00000000       0.00000000       0.22984745
Sb       0.00000000       0.00000000       5.11818182       0.00000000       0.00000000      -0.22984745
2
Properties=species:S:1:pos:R:3:forces:R:3 energy=-2.3528978971165495 pbc="F F F"
Sb       0.00000000       0.00000000       0.00000000       0.00000000       0.00000000       0.22381319
Sb       0.00000000       0.00000000       5.17696970       0.00000000       0.00000000      -0.22381319
2
Properties=species:S:1:pos:R:3:forces:R:3 energy=-2.3399459446138944 pbc="F F F"
Sb       0.00000000       0.00000000       0.00000000       0.00000000       0.00000000       0.21646434
Sb       0.00000000       0.00000000       5.23575758       0.00000000       0.00000000      -0.21646434
2
Properties=species:S:1:pos:R:3:forces:R:3 energy=-2.327503596102792 pbc="F F F"
Sb       0.00000000       0.00000000       0.00000000       0.00000000       0.00000000       0.20627323
Sb       0.00000000       0.00000000       5.29454545       0.00000000       0.00000000      -0.20627323
2
Properties=species:S:1:pos:R:3:forces:R:3 energy=-2.315771522335278 pbc="F F F"
Sb       0.00000000       0.00000000       0.00000000       0.00000000       0.00000000       0.19211213
Sb       0.00000000       0.00000000       5.35333333       0.00000000       0.00000000      -0.19211213
2
Properties=species:S:1:pos:R:3:forces:R:3 energy=-2.305000590341722 pbc="F F F"
Sb       0.00000000       0.00000000       0.00000000       0.00000000       0.00000000       0.17352590
Sb       0.00000000       0.00000000       5.41212121       0.00000000       0.00000000      -0.17352590
2
Properties=species:S:1:pos:R:3:forces:R:3 energy=-2.2954489892682752 pbc="F F F"
Sb       0.00000000       0.00000000       0.00000000       0.00000000       0.00000000       0.15089886
Sb       0.00000000       0.00000000       5.47090909       0.00000000       0.00000000      -0.15089886
2
Properties=species:S:1:pos:R:3:forces:R:3 energy=-2.2873141012679596 pbc="F F F"
Sb       0.00000000       0.00000000       0.00000000       0.00000000       0.00000000       0.12541007
Sb       0.00000000       0.00000000       5.52969697       0.00000000       0.00000000      -0.12541007
2
Properties=species:S:1:pos:R:3:forces:R:3 energy=-2.2807234503061724 pbc="F F F"
Sb       0.00000000       0.00000000       0.00000000       0.00000000       0.00000000       0.09885105
Sb       0.00000000       0.00000000       5.58848485       0.00000000       0.00000000      -0.09885105
2
Properties=species:S:1:pos:R:3:forces:R:3 energy=-2.275674230956701 pbc="F F F"
Sb       0.00000000       0.00000000       0.00000000       0.00000000       0.00000000       0.07330843
Sb       0.00000000       0.00000000       5.64727273       0.00000000       0.00000000      -0.07330843
2
Properties=species:S:1:pos:R:3:forces:R:3 energy=-2.2720471137126026 pbc="F F F"
Sb       0.00000000       0.00000000       0.00000000       0.00000000       0.00000000       0.05077093
Sb       0.00000000       0.00000000       5.70606061       0.00000000       0.00000000      -0.05077093
2
Properties=species:S:1:pos:R:3:forces:R:3 energy=-2.2696115472157437 pbc="F F F"
Sb       0.00000000       0.00000000       0.00000000       0.00000000       0.00000000       0.03275471
Sb       0.00000000       0.00000000       5.76484848       0.00000000       0.00000000      -0.03275471
2
Properties=species:S:1:pos:R:3:forces:R:3 energy=-2.268088771245723 pbc="F F F"
Sb       0.00000000       0.00000000       0.00000000       0.00000000       0.00000000       0.02007261
Sb       0.00000000       0.00000000       5.82363636       0.00000000       0.00000000      -0.02007261
2
Properties=species:S:1:pos:R:3:forces:R:3 energy=-2.267151761282986 pbc="F F F"
Sb       0.00000000       0.00000000       0.00000000       0.00000000       0.00000000       0.01260150
Sb       0.00000000       0.00000000       5.88242424       0.00000000       0.00000000      -0.01260150
2
Properties=species:S:1:pos:R:3:forces:R:3 energy=-2.2665240137880818 pbc="F F F"
Sb       0.00000000       0.00000000       0.00000000       0.00000000       0.00000000       0.00931001
Sb       0.00000000       0.00000000       5.94121212       0.00000000       0.00000000      -0.00931001
2
Properties=species:S:1:pos:R:3:forces:R:3 energy=-2.2660105509123682 pbc="F F F"
Sb       0.00000000       0.00000000       0.00000000       0.00000000       0.00000000       0.00839876
Sb       0.00000000       0.00000000       6.00000000       0.00000000       0.00000000      -0.00839876
