2
Properties=species:S:1:pos:R:3:forces:R:3 energy=-5790118.054237924 pbc="F F F"
Sb       0.00000000       0.00000000       0.00000000       0.00000000       0.00000000 46341744.00000000
Sb       0.00000000       0.00000000       0.18000000       0.00000000       0.00000000 -46341744.00000000
2
Properties=species:S:1:pos:R:3:forces:R:3 energy=-3366913.304237924 pbc="F F F"
Sb       0.00000000       0.00000000       0.00000000       0.00000000       0.00000000 35030488.00000000
Sb       0.00000000       0.00000000       0.23878788       0.00000000       0.00000000 -35030488.00000000
2
Properties=species:S:1:pos:R:3:forces:R:3 energy=-1674785.3042379238 pbc="F F F"
Sb       0.00000000       0.00000000       0.00000000       0.00000000       0.00000000 22138380.00000000
Sb       0.00000000       0.00000000       0.29757576       0.00000000       0.00000000 -22138380.00000000
2
Properties=species:S:1:pos:R:3:forces:R:3 energy=-746724.9917379176 pbc="F F F"
Sb       0.00000000       0.00000000       0.00000000       0.00000000       0.00000000 11174546.00000000
Sb       0.00000000       0.00000000       0.35636364       0.00000000       0.00000000 -11174546.00000000
2
Properties=species:S:1:pos:R:3:forces:R:3 energy=-268564.9917379176 pbc="F F F"
Sb       0.00000000       0.00000000       0.00000000       0.00000000       0.00000000 5095002.00000000
Sb       0.00000000       0.00000000       0.41515152       0.00000000       0.00000000 -5095002.00000000
2
Properties=species:S:1:pos:R:3:forces:R:3 energy=-67683.96048789858 pbc="F F F"
Sb       0.00000000       0.00000000       0.00000000       0.00000000       0.00000000 2417142.25000000
Sb       0.00000000       0.00000000       0.47393939       0.00000000       0.00000000 -2417142.25000000
2
Properties=species:S:1:pos:R:3:forces:R:3 energy=11973.072715258093 pbc="F F F"
Sb       0.00000000       0.00000000       0.00000000       0.00000000       0.00000000  672062.25000000
Sb       0.00000000       0.00000000       0.53272727       0.00000000       0.00000000 -672062.25000000
2
Properties=species:S:1:pos:R:3:forces:R:3 energy=27774.84810593378 pbc="F F F"
Sb       0.00000000       0.00000000       0.00000000       0.00000000       0.00000000  -96524.23437500
Sb       0.00000000       0.00000000       0.59151515       0.00000000       0.00000000   96524.23437500
2
Properties=species:S:1:pos:R:3:forces:R:3 energy=19552.541465384806 pbc="F F F"
Sb       0.00000000       0.00000000       0.00000000       0.00000000       0.00000000 -156229.56250000
Sb       0.00000000       0.00000000       0.65030303       0.00000000       0.00000000  156229.56250000
2
Properties=species:S:1:pos:R:3:forces:R:3 energy=12777.447715517856 pbc="F F F"
Sb       0.00000000       0.00000000       0.00000000       0.00000000       0.00000000 -101081.33593750
Sb       0.00000000       0.00000000       0.70909091       0.00000000       0.00000000  101081.33593750
2
Properties=species:S:1:pos:R:3:forces:R:3 energy=7282.23580165176 pbc="F F F"
Sb       0.00000000       0.00000000       0.00000000       0.00000000       0.00000000  -74070.61718750
Sb       0.00000000       0.00000000       0.76787879       0.00000000       0.00000000   74070.61718750
2
Properties=species:S:1:pos:R:3:forces:R:3 energy=3793.1005480306144 pbc="F F F"
Sb       0.00000000       0.00000000       0.00000000       0.00000000       0.00000000  -44553.69921875
Sb       0.00000000       0.00000000       0.82666667       0.00000000       0.00000000   44553.69921875
2
Properties=species:S:1:pos:R:3:forces:R:3 energy=1713.641564067431 pbc="F F F"
Sb       0.00000000       0.00000000       0.00000000       0.00000000       0.00000000  -24037.92187500
Sb       0.00000000       0.00000000       0.88545455       0.00000000       0.00000000   24037.92187500
2
Properties=species:S:1:pos:R:3:forces:R:3 energy=728.6408322284353 pbc="F F F"
Sb       0.00000000       0.00000000       0.00000000       0.00000000       0.00000000  -11088.75000000
Sb       0.00000000       0.00000000       0.94424242       0.00000000       0.00000000   11088.75000000
2
Properties=species:S:1:pos:R:3:forces:R:3 energy=312.39266408141407 pbc="F F F"
Sb       0.00000000       0.00000000       0.00000000       0.00000000       0.00000000   -3887.57958984
Sb       0.00000000       0.00000000       1.00303030       0.00000000       0.00000000    3887.57958984
2
Properties=species:S:1:pos:R:3:forces:R:3 energy=172.56797338601265 pbc="F F F"
Sb       0.00000000       0.00000000       0.00000000       0.00000000       0.00000000   -1162.11804199
Sb       0.00000000       0.00000000       1.06181818       0.00000000       0.00000000    1162.11804199
2
Properties=species:S:1:pos:R:3:forces:R:3 energy=129.39257503125918 pbc="F F F"
Sb       0.00000000       0.00000000       0.00000000       0.00000000       0.00000000    -558.18261719
Sb       0.00000000       0.00000000       1.12060606       0.00000000       0.00000000     558.18261719
2
Properties=species:S:1:pos:R:3:forces:R:3 energy=100.09773894861408 pbc="F F F"
Sb       0.00000000       0.00000000       0.00000000       0.00000000       0.00000000    -412.73071289
Sb       0.00000000       0.00000000       1.17939394       0.00000000       0.00000000     412.73071289
2
Properties=species:S:1:pos:R:3:forces:R:3 energy=80.60689664860335 pbc="F F F"
Sb       0.00000000       0.00000000       0.00000000       0.00000000       0.00000000    -293.79058838
Sb       0.00000000       0.00000000       1.23818182       0.00000000       0.00000000     293.79058838
2
Properties=species:S:1:pos:R:3:forces:R:3 energy=60.22594500430177 pbc="F F F"
Sb       0.00000000       0.00000000       0.00000000       0.00000000       0.00000000    -347.77096558
Sb       0.00000000       0.00000000       1.29696970       0.00000000       0.00000000     347.77096558
2
Properties=species:S:1:pos:R:3:forces:R:3 energy=44.83510266728854 pbc="F F F"
Sb       0.00000000       0.00000000       0.00000000       0.00000000       0.00000000    -188.95210266
Sb       0.00000000       0.00000000       1.35575758       0.00000000       0.00000000     188.95210266
2
Properties=species:S:1:pos:R:3:forces:R:3 energy=35.38696456570613 pbc="F F F"
Sb       0.00000000       0.00000000       0.00000000       0.00000000       0.00000000    -138.06526184
Sb       0.00000000       0.00000000       1.41454545       0.00000000       0.00000000     138.06526184
2
Properties=species:S:1:pos:R:3:forces:R:3 energy=28.8593255558476 pbc="F F F"
Sb       0.00000000       0.00000000       0.00000000       0.00000000       0.00000000     -92.42998505
Sb       0.00000000       0.00000000       1.47333333       0.00000000       0.00000000      92.42998505
2
Properties=species:S:1:pos:R:3:forces:R:3 energy=24.140630747301913 pbc="F F F"
Sb       0.00000000       0.00000000       0.00000000       0.00000000       0.00000000     -72.60517883
Sb       0.00000000       0.00000000       1.53212121       0.00000000       0.00000000      72.60517883
2
Properties=species:S:1:pos:R:3:forces:R:3 energy=19.99438253347345 pbc="F F F"
Sb       0.00000000       0.00000000       0.00000000       0.00000000       0.00000000     -67.81627655
Sb       0.00000000       0.00000000       1.59090909       0.00000000       0.00000000      67.81627655
2
Properties=species:S:1:pos:R:3:forces:R:3 energy=16.16034638570946 pbc="F F F"
Sb       0.00000000       0.00000000       0.00000000       0.00000000       0.00000000     -62.28690720
Sb       0.00000000       0.00000000       1.64969697       0.00000000       0.00000000      62.28690720
2
Properties=species:S:1:pos:R:3:forces:R:3 energy=12.604150291080247 pbc="F F F"
Sb       0.00000000       0.00000000       0.00000000       0.00000000       0.00000000     -58.96038055
Sb       0.00000000       0.00000000       1.70848485       0.00000000       0.00000000      58.96038055
2
Properties=species:S:1:pos:R:3:forces:R:3 energy=9.311426585144783 pbc="F F F"
Sb       0.00000000       0.00000000       0.00000000       0.00000000       0.00000000     -52.84698868
Sb       0.00000000       0.00000000       1.76727273       0.00000000       0.00000000      52.84698868
2
Properties=species:S:1:pos:R:3:forces:R:3 energy=6.348892363381225 pbc="F F F"
Sb       0.00000000       0.00000000       0.00000000       0.00000000       0.00000000     -47.66525650
Sb       0.00000000       0.00000000       1.82606061       0.00000000       0.00000000      47.66525650
2
Properties=species:S:1:pos:R:3:forces:R:3 energy=3.8184720498644573 pbc="F F F"
Sb       0.00000000       0.00000000       0.00000000       0.00000000       0.00000000     -38.51969528
Sb       0.00000000       0.00000000       1.88484848       0.00000000       0.00000000      38.51969528
2
Properties=species:S:1:pos:R:3:forces:R:3 energy=1.777646531031129 pbc="F F F"
Sb       0.00000000       0.00000000       0.00000000       0.00000000       0.00000000     -31.12172890
Sb       0.00000000       0.00000000       1.94363636       0.00000000       0.00000000      31.12172890
2
Properties=species:S:1:pos:R:3:forces:R:3 energy=0.13945749189635592 pbc="F F F"
Sb       0.00000000       0.00000000       0.00000000       0.00000000       0.00000000     -24.72633743
Sb       0.00000000       0.00000000       2.00242424       0.00000000       0.00000000      24.72633743
2
Properties=species:S:1:pos:R:3:forces:R:3 energy=-1.1405313085647413 pbc="F F F"
Sb       0.00000000       0.00000000       0.00000000       0.00000000       0.00000000     -18.98838425
Sb       0.00000000       0.00000000       2.06121212       0.00000000       0.00000000      18.98838425
2
Properties=species:S:1:pos:R:3:forces:R:3 energy=-2.122113122558487 pbc="F F F"
Sb       0.00000000       0.00000000       0.00000000       0.00000000       0.00000000     -14.64979553
Sb       0.00000000       0.00000000       2.12000000       0.00000000       0.00000000      14.64979553
2
Properties=species:S:1:pos:R:3:forces:R:3 energy=-2.8897335503217776 pbc="F F F"
Sb       0.00000000       0.00000000       0.00000000       0.00000000       0.00000000     -11.65474892
Sb       0.00000000       0.00000000       2.17878788       0.00000000       0.00000000      11.65474892
2
Properties=species:S:1:pos:R:3:forces:R:3 energy=-3.501170352427618 pbc="F F F"
Sb       0.00000000       0.00000000       0.00000000       0.00000000       0.00000000      -9.15809345
Sb       0.00000000       0.00000000       2.23757576       0.00000000       0.00000000       9.15809345
2
Properties=species:S:1:pos:R:3:forces:R:3 energy=-3.9741788212148847 pbc="F F F"
Sb       0.00000000       0.00000000       0.00000000       0.00000000       0.00000000      -7.03283358
Sb       0.00000000       0.00000000       2.29636364       0.00000000       0.00000000       7.03283358
2
Properties=species:S:1:pos:R:3:forces:R:3 energy=-4.3375491258385726 pbc="F F F"
Sb       0.00000000       0.00000000       0.00000000       0.00000000       0.00000000      -5.38623333
Sb       0.00000000       0.00000000       2.35515152       0.00000000       0.00000000       5.38623333
2
Properties=species:S:1:pos:R:3:forces:R:3 energy=-4.61172342831808 pbc="F F F"
Sb       0.00000000       0.00000000       0.00000000       0.00000000       0.00000000      -3.95581269
Sb       0.00000000       0.00000000       2.41393939       0.00000000       0.00000000       3.95581269
2
Properties=species:S:1:pos:R:3:forces:R:3 energy=-4.803829837610528 pbc="F F F"
Sb       0.00000000       0.00000000       0.00000000       0.00000000       0.00000000      -2.59958196
Sb       0.00000000       0.00000000       2.47272727       0.00000000       0.00000000       2.59958196
2
Properties=species:S:1:pos:R:3:forces:R:3 energy=-4.920763225946232 pbc="F F F"
Sb       0.00000000       0.00000000       0.00000000       0.00000000       0.00000000      -1.41073489
Sb       0.00000000       0.00000000       2.53151515       0.00000000       0.00000000       1.41073489
2
Properties=species:S:1:pos:R:3:forces:R:3 energy=-4.973764384757948 pbc="F F F"
Sb       0.00000000       0.00000000       0.00000000       0.00000000       0.00000000      -0.42942148
Sb       0.00000000       0.00000000       2.59030303       0.00000000       0.00000000       0.42942148
2
Properties=species:S:1:pos:R:3:forces:R:3 energy=-4.975541778573162 pbc="F F F"
Sb       0.00000000       0.00000000       0.00000000       0.00000000       0.00000000       0.33481929
Sb       0.00000000       0.00000000       2.64909091       0.00000000       0.00000000      -0.33481929
2
Properties=species:S:1:pos:R:3:forces:R:3 energy=-4.938009511898945 pbc="F F F"
Sb       0.00000000       0.00000000       0.00000000       0.00000000       0.00000000       0.91484004
Sb       0.00000000       0.00000000       2.70787879       0.00000000       0.00000000      -0.91484004
2
Properties=species:S:1:pos:R:3:forces:R:3 energy=-4.870829600015464 pbc="F F F"
Sb       0.00000000       0.00000000       0.00000000       0.00000000       0.00000000       1.34865010
Sb       0.00000000       0.00000000       2.76666667       0.00000000       0.00000000      -1.34865010
2
Properties=species:S:1:pos:R:3:forces:R:3 energy=-4.781881716933254 pbc="F F F"
Sb       0.00000000       0.00000000       0.00000000       0.00000000       0.00000000       1.65762842
Sb       0.00000000       0.00000000       2.82545455       0.00000000       0.00000000      -1.65762842
2
Properties=species:S:1:pos:R:3:forces:R:3 energy=-4.678103439486774 pbc="F F F"
Sb       0.00000000       0.00000000       0.00000000       0.00000000       0.00000000       1.85615814
Sb       0.00000000       0.00000000       2.88424242       0.00000000       0.00000000      -1.85615814
2
Properties=species:S:1:pos:R:3:forces:R:3 energy=-4.565357997050991 pbc="F F F"
Sb       0.00000000       0.00000000       0.00000000       0.00000000       0.00000000       1.96751225
Sb       0.00000000       0.00000000       2.94303030       0.00000000       0.00000000      -1.96751225
2
Properties=species:S:1:pos:R:3:forces:R:3 energy=-4.447870863768455 pbc="F F F"
Sb       0.00000000       0.00000000       0.00000000       0.00000000       0.00000000       2.02260089
Sb       0.00000000       0.00000000       3.00181818       0.00000000       0.00000000      -2.02260089
2
Properties=species:S:1:pos:R:3:forces:R:3 energy=-4.328156060874018 pbc="F F F"
Sb       0.00000000       0.00000000       0.00000000       0.00000000       0.00000000       2.04610562
Sb       0.00000000       0.00000000       3.06060606       0.00000000       0.00000000      -2.04610562
2
Properties=species:S:1:pos:R:3:forces:R:3 energy=-4.207745520822202 pbc="F F F"
Sb       0.00000000       0.00000000       0.00000000       0.00000000       0.00000000       2.04668665
Sb       0.00000000       0.00000000       3.11939394       0.00000000       0.00000000      -2.04668665
2
Properties=species:S:1:pos:R:3:forces:R:3 energy=-4.087890078931608 pbc="F F F"
Sb       0.00000000       0.00000000       0.00000000       0.00000000       0.00000000       2.02821159
Sb       0.00000000       0.00000000       3.17818182       0.00000000       0.00000000      -2.02821159
2
Properties=species:S:1:pos:R:3:forces:R:3 energy=-3.969535584489208 pbc="F F F"
Sb       0.00000000       0.00000000       0.00000000       0.00000000       0.00000000       1.99634755
Sb       0.00000000       0.00000000       3.23696970       0.00000000       0.00000000      -1.99634755
2
Properties=species:S:1:pos:R:3:forces:R:3 energy=-3.853397496005595 pbc="F F F"
Sb       0.00000000       0.00000000       0.00000000       0.00000000       0.00000000       1.95265400
Sb       0.00000000       0.00000000       3.29575758       0.00000000       0.00000000      -1.95265400
2
Properties=species:S:1:pos:R:3:forces:R:3 energy=-3.7402161700420185 pbc="F F F"
Sb       0.00000000       0.00000000       0.00000000       0.00000000       0.00000000       1.89550269
Sb       0.00000000       0.00000000       3.35454545       0.00000000       0.00000000      -1.89550269
2
Properties=species:S:1:pos:R:3:forces:R:3 energy=-3.630811169129352 pbc="F F F"
Sb       0.00000000       0.00000000       0.00000000       0.00000000       0.00000000       1.82417786
Sb       0.00000000       0.00000000       3.41333333       0.00000000       0.00000000      -1.82417786
2
Properties=species:S:1:pos:R:3:forces:R:3 energy=-3.525981281384165 pbc="F F F"
Sb       0.00000000       0.00000000       0.00000000       0.00000000       0.00000000       1.74042070
Sb       0.00000000       0.00000000       3.47212121       0.00000000       0.00000000      -1.74042070
2
Properties=species:S:1:pos:R:3:forces:R:3 energy=-3.4263544957094108 pbc="F F F"
Sb       0.00000000       0.00000000       0.00000000       0.00000000       0.00000000       1.64782035
Sb       0.00000000       0.00000000       3.53090909       0.00000000       0.00000000      -1.64782035
2
Properties=species:S:1:pos:R:3:forces:R:3 energy=-3.3323433284687436 pbc="F F F"
Sb       0.00000000       0.00000000       0.00000000       0.00000000       0.00000000       1.54973054
Sb       0.00000000       0.00000000       3.58969697       0.00000000       0.00000000      -1.54973054
2
Properties=species:S:1:pos:R:3:forces:R:3 energy=-3.2442105930620713 pbc="F F F"
Sb       0.00000000       0.00000000       0.00000000       0.00000000       0.00000000       1.44812131
Sb       0.00000000       0.00000000       3.64848485       0.00000000       0.00000000      -1.44812131
2
Properties=species:S:1:pos:R:3:forces:R:3 energy=-3.1621204222680617 pbc="F F F"
Sb       0.00000000       0.00000000       0.00000000       0.00000000       0.00000000       1.34441030
Sb       0.00000000       0.00000000       3.70727273       0.00000000       0.00000000      -1.34441030
2
Properties=species:S:1:pos:R:3:forces:R:3 energy=-3.0861412722986405 pbc="F F F"
Sb       0.00000000       0.00000000       0.00000000       0.00000000       0.00000000       1.24061775
Sb       0.00000000       0.00000000       3.76606061       0.00000000       0.00000000      -1.24061775
2
Properties=species:S:1:pos:R:3:forces:R:3 energy=-3.016204254904608 pbc="F F F"
Sb       0.00000000       0.00000000       0.00000000       0.00000000       0.00000000       1.13940883
Sb       0.00000000       0.00000000       3.82484848       0.00000000       0.00000000      -1.13940883
2
Properties=species:S:1:pos:R:3:forces:R:3 energy=-2.9520777404694267 pbc="F F F"
Sb       0.00000000       0.00000000       0.00000000       0.00000000       0.00000000       1.04318023
Sb       0.00000000       0.00000000       3.88363636       0.00000000       0.00000000      -1.04318023
2
Properties=species:S:1:pos:R:3:forces:R:3 energy=-2.89342712488499 pbc="F F F"
Sb       0.00000000       0.00000000       0.00000000       0.00000000       0.00000000       0.95320648
Sb       0.00000000       0.00000000       3.94242424       0.00000000       0.00000000      -0.95320648
2
Properties=species:S:1:pos:R:3:forces:R:3 energy=-2.839882671812784 pbc="F F F"
Sb       0.00000000       0.00000000       0.00000000       0.00000000       0.00000000       0.86948454
Sb       0.00000000       0.00000000       4.00121212       0.00000000       0.00000000      -0.86948454
2
Properties=species:S:1:pos:R:3:forces:R:3 energy=-2.7910885143735715 pbc="F F F"
Sb       0.00000000       0.00000000       0.00000000       0.00000000       0.00000000       0.79127073
Sb       0.00000000       0.00000000       4.06000000       0.00000000       0.00000000      -0.79127073
2
Properties=species:S:1:pos:R:3:forces:R:3 energy=-2.7467528465940654 pbc="F F F"
Sb       0.00000000       0.00000000       0.00000000       0.00000000       0.00000000       0.71785808
Sb       0.00000000       0.00000000       4.11878788       0.00000000       0.00000000      -0.71785808
2
Properties=species:S:1:pos:R:3:forces:R:3 energy=-2.706595699402722 pbc="F F F"
Sb       0.00000000       0.00000000       0.00000000       0.00000000       0.00000000       0.64909804
Sb       0.00000000       0.00000000       4.17757576       0.00000000       0.00000000      -0.64909804
2
Properties=species:S:1:pos:R:3:forces:R:3 energy=-2.670334549983797 pbc="F F F"
Sb       0.00000000       0.00000000       0.00000000       0.00000000       0.00000000       0.58550853
Sb       0.00000000       0.00000000       4.23636364       0.00000000       0.00000000      -0.58550853
2
Properties=species:S:1:pos:R:3:forces:R:3 energy=-2.637633821388085 pbc="F F F"
Sb       0.00000000       0.00000000       0.00000000       0.00000000       0.00000000       0.52803379
Sb       0.00000000       0.00000000       4.29515152       0.00000000       0.00000000      -0.52803379
2
Properties=species:S:1:pos:R:3:forces:R:3 energy=-2.6081115075679815 pbc="F F F"
Sb       0.00000000       0.00000000       0.00000000       0.00000000       0.00000000       0.47762761
Sb       0.00000000       0.00000000       4.35393939       0.00000000       0.00000000      -0.47762761
2
Properties=species:S:1:pos:R:3:forces:R:3 energy=-2.5813285910931594 pbc="F F F"
Sb       0.00000000       0.00000000       0.00000000       0.00000000       0.00000000       0.43484384
Sb       0.00000000       0.00000000       4.41272727       0.00000000       0.00000000      -0.43484384
2
Properties=species:S:1:pos:R:3:forces:R:3 energy=-2.5568366761812342 pbc="F F F"
Sb       0.00000000       0.00000000       0.00000000       0.00000000       0.00000000       0.39956850
Sb       0.00000000       0.00000000       4.47151515       0.00000000       0.00000000      -0.39956850
2
Properties=species:S:1:pos:R:3:forces:R:3 energy=-2.534216485794694 pbc="F F F"
Sb       0.00000000       0.00000000       0.00000000       0.00000000       0.00000000       0.37095967
Sb       0.00000000       0.00000000       4.53030303       0.00000000       0.00000000      -0.37095967
2
Properties=species:S:1:pos:R:3:forces:R:3 energy=-2.513116396751693 pbc="F F F"
Sb       0.00000000       0.00000000       0.00000000       0.00000000       0.00000000       0.34761581
Sb       0.00000000       0.00000000       4.58909091       0.00000000       0.00000000      -0.34761581
2
Properties=species:S:1:pos:R:3:forces:R:3 energy=-2.4932752835601346 pbc="F F F"
Sb       0.00000000       0.00000000       0.00000000       0.00000000       0.00000000       0.32792976
Sb       0.00000000       0.00000000       4.64787879       0.00000000       0.00000000      -0.32792976
2
Properties=species:S:1:pos:R:3:forces:R:3 energy=-2.474517572648051 pbc="F F F"
Sb       0.00000000       0.00000000       0.00000000       0.00000000       0.00000000       0.31048152
Sb       0.00000000       0.00000000       4.70666667       0.00000000       0.00000000      -0.31048152
2
Properties=species:S:1:pos:R:3:forces:R:3 energy=-2.4567432161119895 pbc="F F F"
Sb       0.00000000       0.00000000       0.00000000       0.00000000       0.00000000       0.29436165
Sb       0.00000000       0.00000000       4.76545455       0.00000000       0.00000000      -0.29436165
2
Properties=species:S:1:pos:R:3:forces:R:3 energy=-2.4398856571871845 pbc="F F F"
Sb       0.00000000       0.00000000       0.00000000       0.00000000       0.00000000       0.27929473
Sb       0.00000000       0.00000000       4.82424242       0.00000000       0.00000000      -0.27929473
2
Properties=species:S:1:pos:R:3:forces:R:3 energy=-2.4238803083099585 pbc="F F F"
Sb       0.00000000       0.00000000       0.00000000       0.00000000       0.00000000       0.26553428
Sb       0.00000000       0.00000000       4.88303030       0.00000000       0.00000000      -0.26553428
2
Properties=species:S:1:pos:R:3:forces:R:3 energy=-2.4086310790658967 pbc="F F F"
Sb       0.00000000       0.00000000       0.00000000       0.00000000       0.00000000       0.25357503
Sb       0.00000000       0.00000000       4.94181818       0.00000000       0.00000000      -0.25357503
2
Properties=species:S:1:pos:R:3:forces:R:3 energy=-2.3940232951426283 pbc="F F F"
Sb       0.00000000       0.00000000       0.00000000       0.00000000       0.00000000       0.24378708
Sb       0.00000000       0.00000000       5.00060606       0.00000000       0.00000000      -0.24378708
2
Properties=species:S:1:pos:R:3:forces:R:3 energy=-2.379923685658537 pbc="F F F"
Sb       0.00000000       0.00000000       0.00000000       0.00000000       0.00000000       0.23609962
Sb       0.00000000       0.00000000       5.05939394       0.00000000       0.00000000      -0.23609962
2
Properties=species:S:1:pos:R:3:forces:R:3 energy=-2.3662351750864445 pbc="F F F"
Sb       0.00000000       0.00000000       0.00000000       0.00000000       0.00000000       0.22984834
Sb       0.00000000       0.00000000       5.11818182       0.00000000       0.00000000      -0.22984834
2
Properties=species:S:1:pos:R:3:forces:R:3 energy=-2.352897890780905 pbc="F F F"
Sb       0.00000000       0.00000000       0.00000000       0.00000000       0.00000000       0.22381392
Sb       0.00000000       0.00000000       5.17696970       0.00000000       0.00000000      -0.22381392
2
Properties=species:S:1:pos:R:3:forces:R:3 energy=-2.339946898288211 pbc="F F F"
Sb       0.00000000       0.00000000       0.00000000       0.00000000       0.00000000       0.21646231
Sb       0.00000000       0.00000000       5.23575758       0.00000000       0.00000000      -0.21646231
2
Properties=species:S:1:pos:R:3:forces:R:3 energy=-2.327503122433456 pbc="F F F"
Sb       0.00000000       0.00000000       0.00000000       0.00000000       0.00000000       0.20627303
Sb       0.00000000       0.00000000       5.29454545       0.00000000       0.00000000      -0.20627303
2
Properties=species:S:1:pos:R:3:forces:R:3 energy=-2.315771996004614 pbc="F F F"
Sb       0.00000000       0.00000000       0.00000000       0.00000000       0.00000000       0.19211185
Sb       0.00000000       0.00000000       5.35333333       0.00000000       0.00000000      -0.19211185
2
Properties=species:S:1:pos:R:3:forces:R:3 energy=-2.305001068762791 pbc="F F F"
Sb       0.00000000       0.00000000       0.00000000       0.00000000       0.00000000       0.17352933
Sb       0.00000000       0.00000000       5.41212121       0.00000000       0.00000000      -0.17352933
2
Properties=species:S:1:pos:R:3:forces:R:3 energy=-2.295448038761781 pbc="F F F"
Sb       0.00000000       0.00000000       0.00000000       0.00000000       0.00000000       0.15089965
Sb       0.00000000       0.00000000       5.47090909       0.00000000       0.00000000      -0.15089965
2
Properties=species:S:1:pos:R:3:forces:R:3 energy=-2.287315050190543 pbc="F F F"
Sb       0.00000000       0.00000000       0.00000000       0.00000000       0.00000000       0.12541194
Sb       0.00000000       0.00000000       5.52969697       0.00000000       0.00000000      -0.12541194
2
Properties=species:S:1:pos:R:3:forces:R:3 energy=-2.2807239271433306 pbc="F F F"
Sb       0.00000000       0.00000000       0.00000000       0.00000000       0.00000000       0.09885157
Sb       0.00000000       0.00000000       5.58848485       0.00000000       0.00000000      -0.09885157
2
Properties=species:S:1:pos:R:3:forces:R:3 energy=-2.2756756614681755 pbc="F F F"
Sb       0.00000000       0.00000000       0.00000000       0.00000000       0.00000000       0.07331228
Sb       0.00000000       0.00000000       5.64727273       0.00000000       0.00000000      -0.07331228
2
Properties=species:S:1:pos:R:3:forces:R:3 energy=-2.2720466305398 pbc="F F F"
Sb       0.00000000       0.00000000       0.00000000       0.00000000       0.00000000       0.05077035
Sb       0.00000000       0.00000000       5.70606061       0.00000000       0.00000000      -0.05077035
2
Properties=species:S:1:pos:R:3:forces:R:3 energy=-2.2696129785191737 pbc="F F F"
Sb       0.00000000       0.00000000       0.00000000       0.00000000       0.00000000       0.03275492
Sb       0.00000000       0.00000000       5.76484848       0.00000000       0.00000000      -0.03275492
2
Properties=species:S:1:pos:R:3:forces:R:3 energy=-2.2680878191553178 pbc="F F F"
Sb       0.00000000       0.00000000       0.00000000       0.00000000       0.00000000       0.02006977
Sb       0.00000000       0.00000000       5.82363636       0.00000000       0.00000000      -0.02006977
2
Properties=species:S:1:pos:R:3:forces:R:3 energy=-2.267152712581436 pbc="F F F"
Sb       0.00000000       0.00000000       0.00000000       0.00000000       0.00000000       0.01259993
Sb       0.00000000       0.00000000       5.88242424       0.00000000       0.00000000      -0.01259993
2
Properties=species:S:1:pos:R:3:forces:R:3 energy=-2.266524015371993 pbc="F F F"
Sb       0.00000000       0.00000000       0.00000000       0.00000000       0.00000000       0.00931070
Sb       0.00000000       0.00000000       5.94121212       0.00000000       0.00000000      -0.00931070
2
Properties=species:S:1:pos:R:3:forces:R:3 energy=-2.2660105517043236 pbc="F F F"
Sb       0.00000000       0.00000000       0.00000000       0.00000000       0.00000000       0.00839876
Sb       0.00000000       0.00000000       6.00000000       0.00000000       0.00000000      -0.00839876
