2
Properties=species:S:1:pos:R:3:forces:R:3 energy=-2139.24122491423 pbc="F F F"
Sc       0.00000000       0.00000000       0.00000000       0.00000000       0.00000000 -204080.39062500
Sc       0.00000000       0.00000000       0.10000000       0.00000000       0.00000000  204080.39062500
2
Properties=species:S:1:pos:R:3:forces:R:3 energy=-13378.373060851729 pbc="F F F"
Sc       0.00000000       0.00000000       0.00000000       0.00000000       0.00000000 -151673.95312500
Sc       0.00000000       0.00000000       0.15959596       0.00000000       0.00000000  151673.95312500
2
Properties=species:S:1:pos:R:3:forces:R:3 energy=-18619.08692803923 pbc="F F F"
Sc       0.00000000       0.00000000       0.00000000       0.00000000       0.00000000  -19327.03906250
Sc       0.00000000       0.00000000       0.21919192       0.00000000       0.00000000   19327.03906250
2
Properties=species:S:1:pos:R:3:forces:R:3 energy=-17634.39942803923 pbc="F F F"
Sc       0.00000000       0.00000000       0.00000000       0.00000000       0.00000000   77360.28125000
Sc       0.00000000       0.00000000       0.27878788       0.00000000       0.00000000  -77360.28125000
2
Properties=species:S:1:pos:R:3:forces:R:3 energy=-11848.597670220393 pbc="F F F"
Sc       0.00000000       0.00000000       0.00000000       0.00000000       0.00000000   85453.50781250
Sc       0.00000000       0.00000000       0.33838384       0.00000000       0.00000000  -85453.50781250
2
Properties=species:S:1:pos:R:3:forces:R:3 energy=-7051.992201470394 pbc="F F F"
Sc       0.00000000       0.00000000       0.00000000       0.00000000       0.00000000   92351.10156250
Sc       0.00000000       0.00000000       0.39797980       0.00000000       0.00000000  -92351.10156250
2
Properties=species:S:1:pos:R:3:forces:R:3 energy=-2892.1379534140156 pbc="F F F"
Sc       0.00000000       0.00000000       0.00000000       0.00000000       0.00000000   43667.62500000
Sc       0.00000000       0.00000000       0.45757576       0.00000000       0.00000000  -43667.62500000
2
Properties=species:S:1:pos:R:3:forces:R:3 energy=-1036.5796037888015 pbc="F F F"
Sc       0.00000000       0.00000000       0.00000000       0.00000000       0.00000000   19919.08203125
Sc       0.00000000       0.00000000       0.51717172       0.00000000       0.00000000  -19919.08203125
2
Properties=species:S:1:pos:R:3:forces:R:3 energy=-251.0897661169746 pbc="F F F"
Sc       0.00000000       0.00000000       0.00000000       0.00000000       0.00000000    7851.24902344
Sc       0.00000000       0.00000000       0.57676768       0.00000000       0.00000000   -7851.24902344
2
Properties=species:S:1:pos:R:3:forces:R:3 energy=-9.574310826653425 pbc="F F F"
Sc       0.00000000       0.00000000       0.00000000       0.00000000       0.00000000    1670.50183105
Sc       0.00000000       0.00000000       0.63636364       0.00000000       0.00000000   -1670.50183105
2
Properties=species:S:1:pos:R:3:forces:R:3 energy=17.768170862533484 pbc="F F F"
Sc       0.00000000       0.00000000       0.00000000       0.00000000       0.00000000      15.16299248
Sc       0.00000000       0.00000000       0.69595960       0.00000000       0.00000000     -15.16299248
2
Properties=species:S:1:pos:R:3:forces:R:3 energy=20.666017192163267 pbc="F F F"
Sc       0.00000000       0.00000000       0.00000000       0.00000000       0.00000000      63.12739563
Sc       0.00000000       0.00000000       0.75555556       0.00000000       0.00000000     -63.12739563
2
Properties=species:S:1:pos:R:3:forces:R:3 energy=26.093778441106522 pbc="F F F"
Sc       0.00000000       0.00000000       0.00000000       0.00000000       0.00000000      86.03731537
Sc       0.00000000       0.00000000       0.81515152       0.00000000       0.00000000     -86.03731537
2
Properties=species:S:1:pos:R:3:forces:R:3 energy=26.67086226950749 pbc="F F F"
Sc       0.00000000       0.00000000       0.00000000       0.00000000       0.00000000     -25.36411667
Sc       0.00000000       0.00000000       0.87474747       0.00000000       0.00000000      25.36411667
2
Properties=species:S:1:pos:R:3:forces:R:3 energy=25.803984102110796 pbc="F F F"
Sc       0.00000000       0.00000000       0.00000000       0.00000000       0.00000000     -12.91757202
Sc       0.00000000       0.00000000       0.93434343       0.00000000       0.00000000      12.91757202
2
Properties=species:S:1:pos:R:3:forces:R:3 energy=25.509928635395596 pbc="F F F"
Sc       0.00000000       0.00000000       0.00000000       0.00000000       0.00000000     -17.04620934
Sc       0.00000000       0.00000000       0.99393939       0.00000000       0.00000000      17.04620934
2
Properties=species:S:1:pos:R:3:forces:R:3 energy=25.060947046029604 pbc="F F F"
Sc       0.00000000       0.00000000       0.00000000       0.00000000       0.00000000      16.13698387
Sc       0.00000000       0.00000000       1.05353535       0.00000000       0.00000000     -16.13698387
2
Properties=species:S:1:pos:R:3:forces:R:3 energy=25.166008478734163 pbc="F F F"
Sc       0.00000000       0.00000000       0.00000000       0.00000000       0.00000000     -21.00780678
Sc       0.00000000       0.00000000       1.11313131       0.00000000       0.00000000      21.00780678
2
Properties=species:S:1:pos:R:3:forces:R:3 energy=22.866910644308632 pbc="F F F"
Sc       0.00000000       0.00000000       0.00000000       0.00000000       0.00000000     -53.51377106
Sc       0.00000000       0.00000000       1.17272727       0.00000000       0.00000000      53.51377106
2
Properties=species:S:1:pos:R:3:forces:R:3 energy=19.28477024429305 pbc="F F F"
Sc       0.00000000       0.00000000       0.00000000       0.00000000       0.00000000     -57.28382874
Sc       0.00000000       0.00000000       1.23232323       0.00000000       0.00000000      57.28382874
2
Properties=species:S:1:pos:R:3:forces:R:3 energy=15.819946505294883 pbc="F F F"
Sc       0.00000000       0.00000000       0.00000000       0.00000000       0.00000000     -57.62797165
Sc       0.00000000       0.00000000       1.29191919       0.00000000       0.00000000      57.62797165
2
Properties=species:S:1:pos:R:3:forces:R:3 energy=12.73636889258205 pbc="F F F"
Sc       0.00000000       0.00000000       0.00000000       0.00000000       0.00000000     -45.95753098
Sc       0.00000000       0.00000000       1.35151515       0.00000000       0.00000000      45.95753098
2
Properties=species:S:1:pos:R:3:forces:R:3 energy=10.111072460949027 pbc="F F F"
Sc       0.00000000       0.00000000       0.00000000       0.00000000       0.00000000     -42.92650223
Sc       0.00000000       0.00000000       1.41111111       0.00000000       0.00000000      42.92650223
2
Properties=species:S:1:pos:R:3:forces:R:3 energy=7.680017346990391 pbc="F F F"
Sc       0.00000000       0.00000000       0.00000000       0.00000000       0.00000000     -37.42918396
Sc       0.00000000       0.00000000       1.47070707       0.00000000       0.00000000      37.42918396
2
Properties=species:S:1:pos:R:3:forces:R:3 energy=5.677201038228841 pbc="F F F"
Sc       0.00000000       0.00000000       0.00000000       0.00000000       0.00000000     -30.47931099
Sc       0.00000000       0.00000000       1.53030303       0.00000000       0.00000000      30.47931099
2
Properties=species:S:1:pos:R:3:forces:R:3 energy=3.9912269130081697 pbc="F F F"
Sc       0.00000000       0.00000000       0.00000000       0.00000000       0.00000000     -26.71523285
Sc       0.00000000       0.00000000       1.58989899       0.00000000       0.00000000      26.71523285
2
Properties=species:S:1:pos:R:3:forces:R:3 energy=2.470775654445704 pbc="F F F"
Sc       0.00000000       0.00000000       0.00000000       0.00000000       0.00000000     -23.77325630
Sc       0.00000000       0.00000000       1.64949495       0.00000000       0.00000000      23.77325630
2
Properties=species:S:1:pos:R:3:forces:R:3 energy=1.1168164205622853 pbc="F F F"
Sc       0.00000000       0.00000000       0.00000000       0.00000000       0.00000000     -21.94332314
Sc       0.00000000       0.00000000       1.70909091       0.00000000       0.00000000      21.94332314
2
Properties=species:S:1:pos:R:3:forces:R:3 energy=-0.10189867538501401 pbc="F F F"
Sc       0.00000000       0.00000000       0.00000000       0.00000000       0.00000000     -18.85090256
Sc       0.00000000       0.00000000       1.76868687       0.00000000       0.00000000      18.85090256
2
Properties=species:S:1:pos:R:3:forces:R:3 energy=-1.1788242466126608 pbc="F F F"
Sc       0.00000000       0.00000000       0.00000000       0.00000000       0.00000000     -17.41797638
Sc       0.00000000       0.00000000       1.82828283       0.00000000       0.00000000      17.41797638
2
Properties=species:S:1:pos:R:3:forces:R:3 energy=-2.142582739813094 pbc="F F F"
Sc       0.00000000       0.00000000       0.00000000       0.00000000       0.00000000     -14.94739056
Sc       0.00000000       0.00000000       1.88787879       0.00000000       0.00000000      14.94739056
2
Properties=species:S:1:pos:R:3:forces:R:3 energy=-2.9568636359456018 pbc="F F F"
Sc       0.00000000       0.00000000       0.00000000       0.00000000       0.00000000     -12.21468067
Sc       0.00000000       0.00000000       1.94747475       0.00000000       0.00000000      12.21468067
2
Properties=species:S:1:pos:R:3:forces:R:3 energy=-3.599607294824597 pbc="F F F"
Sc       0.00000000       0.00000000       0.00000000       0.00000000       0.00000000      -9.46970654
Sc       0.00000000       0.00000000       2.00707071       0.00000000       0.00000000       9.46970654
2
Properties=species:S:1:pos:R:3:forces:R:3 energy=-4.097676849440654 pbc="F F F"
Sc       0.00000000       0.00000000       0.00000000       0.00000000       0.00000000      -7.32175446
Sc       0.00000000       0.00000000       2.06666667       0.00000000       0.00000000       7.32175446
2
Properties=species:S:1:pos:R:3:forces:R:3 energy=-4.475895700819595 pbc="F F F"
Sc       0.00000000       0.00000000       0.00000000       0.00000000       0.00000000      -5.37731552
Sc       0.00000000       0.00000000       2.12626263       0.00000000       0.00000000       5.37731552
2
Properties=species:S:1:pos:R:3:forces:R:3 energy=-4.748918962021785 pbc="F F F"
Sc       0.00000000       0.00000000       0.00000000       0.00000000       0.00000000      -3.92817688
Sc       0.00000000       0.00000000       2.18585859       0.00000000       0.00000000       3.92817688
2
Properties=species:S:1:pos:R:3:forces:R:3 energy=-4.952980487187731 pbc="F F F"
Sc       0.00000000       0.00000000       0.00000000       0.00000000       0.00000000      -2.95262718
Sc       0.00000000       0.00000000       2.24545455       0.00000000       0.00000000       2.95262718
2
Properties=species:S:1:pos:R:3:forces:R:3 energy=-5.106859792730044 pbc="F F F"
Sc       0.00000000       0.00000000       0.00000000       0.00000000       0.00000000      -2.24851131
Sc       0.00000000       0.00000000       2.30505051       0.00000000       0.00000000       2.24851131
2
Properties=species:S:1:pos:R:3:forces:R:3 energy=-5.223219448320804 pbc="F F F"
Sc       0.00000000       0.00000000       0.00000000       0.00000000       0.00000000      -1.68362677
Sc       0.00000000       0.00000000       2.36464646       0.00000000       0.00000000       1.68362677
2
Properties=species:S:1:pos:R:3:forces:R:3 energy=-5.311554160835891 pbc="F F F"
Sc       0.00000000       0.00000000       0.00000000       0.00000000       0.00000000      -1.30718303
Sc       0.00000000       0.00000000       2.42424242       0.00000000       0.00000000       1.30718303
2
Properties=species:S:1:pos:R:3:forces:R:3 energy=-5.382504626274879 pbc="F F F"
Sc       0.00000000       0.00000000       0.00000000       0.00000000       0.00000000      -1.10653400
Sc       0.00000000       0.00000000       2.48383838       0.00000000       0.00000000       1.10653400
2
Properties=species:S:1:pos:R:3:forces:R:3 energy=-5.444919455117607 pbc="F F F"
Sc       0.00000000       0.00000000       0.00000000       0.00000000       0.00000000      -0.97835523
Sc       0.00000000       0.00000000       2.54343434       0.00000000       0.00000000       0.97835523
2
Properties=species:S:1:pos:R:3:forces:R:3 energy=-5.498093707435982 pbc="F F F"
Sc       0.00000000       0.00000000       0.00000000       0.00000000       0.00000000      -0.80768496
Sc       0.00000000       0.00000000       2.60303030       0.00000000       0.00000000       0.80768496
2
Properties=species:S:1:pos:R:3:forces:R:3 energy=-5.54194084222244 pbc="F F F"
Sc       0.00000000       0.00000000       0.00000000       0.00000000       0.00000000      -0.66810912
Sc       0.00000000       0.00000000       2.66262626       0.00000000       0.00000000       0.66810912
2
Properties=species:S:1:pos:R:3:forces:R:3 energy=-5.5774793526220545 pbc="F F F"
Sc       0.00000000       0.00000000       0.00000000       0.00000000       0.00000000      -0.51779532
Sc       0.00000000       0.00000000       2.72222222       0.00000000       0.00000000       0.51779532
2
Properties=species:S:1:pos:R:3:forces:R:3 energy=-5.602929440922152 pbc="F F F"
Sc       0.00000000       0.00000000       0.00000000       0.00000000       0.00000000      -0.33370441
Sc       0.00000000       0.00000000       2.78181818       0.00000000       0.00000000       0.33370441
2
Properties=species:S:1:pos:R:3:forces:R:3 energy=-5.617492213468048 pbc="F F F"
Sc       0.00000000       0.00000000       0.00000000       0.00000000       0.00000000      -0.16051321
Sc       0.00000000       0.00000000       2.84141414       0.00000000       0.00000000       0.16051321
2
Properties=species:S:1:pos:R:3:forces:R:3 energy=-5.622894173982765 pbc="F F F"
Sc       0.00000000       0.00000000       0.00000000       0.00000000       0.00000000      -0.02800969
Sc       0.00000000       0.00000000       2.90101010       0.00000000       0.00000000       0.02800969
2
Properties=species:S:1:pos:R:3:forces:R:3 energy=-5.621598132380124 pbc="F F F"
Sc       0.00000000       0.00000000       0.00000000       0.00000000       0.00000000       0.06615744
Sc       0.00000000       0.00000000       2.96060606       0.00000000       0.00000000      -0.06615744
2
Properties=species:S:1:pos:R:3:forces:R:3 energy=-5.615502541216238 pbc="F F F"
Sc       0.00000000       0.00000000       0.00000000       0.00000000       0.00000000       0.13496564
Sc       0.00000000       0.00000000       3.02020202       0.00000000       0.00000000      -0.13496564
2
Properties=species:S:1:pos:R:3:forces:R:3 energy=-5.605941141707874 pbc="F F F"
Sc       0.00000000       0.00000000       0.00000000       0.00000000       0.00000000       0.18199977
Sc       0.00000000       0.00000000       3.07979798       0.00000000       0.00000000      -0.18199977
2
Properties=species:S:1:pos:R:3:forces:R:3 energy=-5.5942352616872375 pbc="F F F"
Sc       0.00000000       0.00000000       0.00000000       0.00000000       0.00000000       0.20856094
Sc       0.00000000       0.00000000       3.13939394       0.00000000       0.00000000      -0.20856094
2
Properties=species:S:1:pos:R:3:forces:R:3 energy=-5.581022095192231 pbc="F F F"
Sc       0.00000000       0.00000000       0.00000000       0.00000000       0.00000000       0.23842004
Sc       0.00000000       0.00000000       3.19898990       0.00000000       0.00000000      -0.23842004
2
Properties=species:S:1:pos:R:3:forces:R:3 energy=-5.565196948206487 pbc="F F F"
Sc       0.00000000       0.00000000       0.00000000       0.00000000       0.00000000       0.29794702
Sc       0.00000000       0.00000000       3.25858586       0.00000000       0.00000000      -0.29794702
2
Properties=species:S:1:pos:R:3:forces:R:3 energy=-5.545137744278834 pbc="F F F"
Sc       0.00000000       0.00000000       0.00000000       0.00000000       0.00000000       0.37531221
Sc       0.00000000       0.00000000       3.31818182       0.00000000       0.00000000      -0.37531221
2
Properties=species:S:1:pos:R:3:forces:R:3 energy=-5.520741244421599 pbc="F F F"
Sc       0.00000000       0.00000000       0.00000000       0.00000000       0.00000000       0.43962535
Sc       0.00000000       0.00000000       3.37777778       0.00000000       0.00000000      -0.43962535
2
Properties=species:S:1:pos:R:3:forces:R:3 energy=-5.493225938446979 pbc="F F F"
Sc       0.00000000       0.00000000       0.00000000       0.00000000       0.00000000       0.48012945
Sc       0.00000000       0.00000000       3.43737374       0.00000000       0.00000000      -0.48012945
2
Properties=species:S:1:pos:R:3:forces:R:3 energy=-5.463817984228936 pbc="F F F"
Sc       0.00000000       0.00000000       0.00000000       0.00000000       0.00000000       0.50516129
Sc       0.00000000       0.00000000       3.49696970       0.00000000       0.00000000      -0.50516129
2
Properties=species:S:1:pos:R:3:forces:R:3 energy=-5.433100616258748 pbc="F F F"
Sc       0.00000000       0.00000000       0.00000000       0.00000000       0.00000000       0.52568346
Sc       0.00000000       0.00000000       3.55656566       0.00000000       0.00000000      -0.52568346
2
Properties=species:S:1:pos:R:3:forces:R:3 energy=-5.401137368550006 pbc="F F F"
Sc       0.00000000       0.00000000       0.00000000       0.00000000       0.00000000       0.54729313
Sc       0.00000000       0.00000000       3.61616162       0.00000000       0.00000000      -0.54729313
2
Properties=species:S:1:pos:R:3:forces:R:3 energy=-5.36783571500331 pbc="F F F"
Sc       0.00000000       0.00000000       0.00000000       0.00000000       0.00000000       0.57038295
Sc       0.00000000       0.00000000       3.67575758       0.00000000       0.00000000      -0.57038295
2
Properties=species:S:1:pos:R:3:forces:R:3 energy=-5.333164620188526 pbc="F F F"
Sc       0.00000000       0.00000000       0.00000000       0.00000000       0.00000000       0.59307027
Sc       0.00000000       0.00000000       3.73535354       0.00000000       0.00000000      -0.59307027
2
Properties=species:S:1:pos:R:3:forces:R:3 energy=-5.297196741521814 pbc="F F F"
Sc       0.00000000       0.00000000       0.00000000       0.00000000       0.00000000       0.61324775
Sc       0.00000000       0.00000000       3.79494949       0.00000000       0.00000000      -0.61324775
2
Properties=species:S:1:pos:R:3:forces:R:3 energy=-5.260150900606045 pbc="F F F"
Sc       0.00000000       0.00000000       0.00000000       0.00000000       0.00000000       0.62917942
Sc       0.00000000       0.00000000       3.85454545       0.00000000       0.00000000      -0.62917942
2
Properties=species:S:1:pos:R:3:forces:R:3 energy=-5.22231612078786 pbc="F F F"
Sc       0.00000000       0.00000000       0.00000000       0.00000000       0.00000000       0.63954830
Sc       0.00000000       0.00000000       3.91414141       0.00000000       0.00000000      -0.63954830
2
Properties=species:S:1:pos:R:3:forces:R:3 energy=-5.184049136290366 pbc="F F F"
Sc       0.00000000       0.00000000       0.00000000       0.00000000       0.00000000       0.64359504
Sc       0.00000000       0.00000000       3.97373737       0.00000000       0.00000000      -0.64359504
2
Properties=species:S:1:pos:R:3:forces:R:3 energy=-5.1457318063224 pbc="F F F"
Sc       0.00000000       0.00000000       0.00000000       0.00000000       0.00000000       0.64132577
Sc       0.00000000       0.00000000       4.03333333       0.00000000       0.00000000      -0.64132577
2
Properties=species:S:1:pos:R:3:forces:R:3 energy=-5.107718279524796 pbc="F F F"
Sc       0.00000000       0.00000000       0.00000000       0.00000000       0.00000000       0.63350075
Sc       0.00000000       0.00000000       4.09292929       0.00000000       0.00000000      -0.63350075
2
Properties=species:S:1:pos:R:3:forces:R:3 energy=-5.0703095108609055 pbc="F F F"
Sc       0.00000000       0.00000000       0.00000000       0.00000000       0.00000000       0.62127274
Sc       0.00000000       0.00000000       4.15252525       0.00000000       0.00000000      -0.62127274
2
Properties=species:S:1:pos:R:3:forces:R:3 energy=-5.0337351544758695 pbc="F F F"
Sc       0.00000000       0.00000000       0.00000000       0.00000000       0.00000000       0.60569239
Sc       0.00000000       0.00000000       4.21212121       0.00000000       0.00000000      -0.60569239
2
Properties=species:S:1:pos:R:3:forces:R:3 energy=-4.998168854163906 pbc="F F F"
Sc       0.00000000       0.00000000       0.00000000       0.00000000       0.00000000       0.58737510
Sc       0.00000000       0.00000000       4.27171717       0.00000000       0.00000000      -0.58737510
2
Properties=species:S:1:pos:R:3:forces:R:3 energy=-4.9637737853166595 pbc="F F F"
Sc       0.00000000       0.00000000       0.00000000       0.00000000       0.00000000       0.56651294
Sc       0.00000000       0.00000000       4.33131313       0.00000000       0.00000000      -0.56651294
2
Properties=species:S:1:pos:R:3:forces:R:3 energy=-4.930696473383236 pbc="F F F"
Sc       0.00000000       0.00000000       0.00000000       0.00000000       0.00000000       0.54309487
Sc       0.00000000       0.00000000       4.39090909       0.00000000       0.00000000      -0.54309487
2
Properties=species:S:1:pos:R:3:forces:R:3 energy=-4.89909000216369 pbc="F F F"
Sc       0.00000000       0.00000000       0.00000000       0.00000000       0.00000000       0.51717383
Sc       0.00000000       0.00000000       4.45050505       0.00000000       0.00000000      -0.51717383
2
Properties=species:S:1:pos:R:3:forces:R:3 energy=-4.869097947065459 pbc="F F F"
Sc       0.00000000       0.00000000       0.00000000       0.00000000       0.00000000       0.48901913
Sc       0.00000000       0.00000000       4.51010101       0.00000000       0.00000000      -0.48901913
2
Properties=species:S:1:pos:R:3:forces:R:3 energy=-4.840838856552891 pbc="F F F"
Sc       0.00000000       0.00000000       0.00000000       0.00000000       0.00000000       0.45913652
Sc       0.00000000       0.00000000       4.56969697       0.00000000       0.00000000      -0.45913652
2
Properties=species:S:1:pos:R:3:forces:R:3 energy=-4.81439286269294 pbc="F F F"
Sc       0.00000000       0.00000000       0.00000000       0.00000000       0.00000000       0.42822421
Sc       0.00000000       0.00000000       4.62929293       0.00000000       0.00000000      -0.42822421
2
Properties=species:S:1:pos:R:3:forces:R:3 energy=-4.789803271721594 pbc="F F F"
Sc       0.00000000       0.00000000       0.00000000       0.00000000       0.00000000       0.39710572
Sc       0.00000000       0.00000000       4.68888889       0.00000000       0.00000000      -0.39710572
2
Properties=species:S:1:pos:R:3:forces:R:3 energy=-4.767047827101489 pbc="F F F"
Sc       0.00000000       0.00000000       0.00000000       0.00000000       0.00000000       0.36665058
Sc       0.00000000       0.00000000       4.74848485       0.00000000       0.00000000      -0.36665058
2
Properties=species:S:1:pos:R:3:forces:R:3 energy=-4.7460697879644105 pbc="F F F"
Sc       0.00000000       0.00000000       0.00000000       0.00000000       0.00000000       0.33772698
Sc       0.00000000       0.00000000       4.80808081       0.00000000       0.00000000      -0.33772698
2
Properties=species:S:1:pos:R:3:forces:R:3 energy=-4.726747563588625 pbc="F F F"
Sc       0.00000000       0.00000000       0.00000000       0.00000000       0.00000000       0.31111634
Sc       0.00000000       0.00000000       4.86767677       0.00000000       0.00000000      -0.31111634
2
Properties=species:S:1:pos:R:3:forces:R:3 energy=-4.708927572477128 pbc="F F F"
Sc       0.00000000       0.00000000       0.00000000       0.00000000       0.00000000       0.28740624
Sc       0.00000000       0.00000000       4.92727273       0.00000000       0.00000000      -0.28740624
2
Properties=species:S:1:pos:R:3:forces:R:3 energy=-4.692428972715355 pbc="F F F"
Sc       0.00000000       0.00000000       0.00000000       0.00000000       0.00000000       0.26688227
Sc       0.00000000       0.00000000       4.98686869       0.00000000       0.00000000      -0.26688227
2
Properties=species:S:1:pos:R:3:forces:R:3 energy=-4.677059785735546 pbc="F F F"
Sc       0.00000000       0.00000000       0.00000000       0.00000000       0.00000000       0.24942081
Sc       0.00000000       0.00000000       5.04646465       0.00000000       0.00000000      -0.24942081
2
Properties=species:S:1:pos:R:3:forces:R:3 energy=-4.662649926457377 pbc="F F F"
Sc       0.00000000       0.00000000       0.00000000       0.00000000       0.00000000       0.23446231
Sc       0.00000000       0.00000000       5.10606061       0.00000000       0.00000000      -0.23446231
2
Properties=species:S:1:pos:R:3:forces:R:3 energy=-4.6490800099224305 pbc="F F F"
Sc       0.00000000       0.00000000       0.00000000       0.00000000       0.00000000       0.22106279
Sc       0.00000000       0.00000000       5.16565657       0.00000000       0.00000000      -0.22106279
2
Properties=species:S:1:pos:R:3:forces:R:3 energy=-4.636292522953286 pbc="F F F"
Sc       0.00000000       0.00000000       0.00000000       0.00000000       0.00000000       0.20807974
Sc       0.00000000       0.00000000       5.22525253       0.00000000       0.00000000      -0.20807974
2
Properties=species:S:1:pos:R:3:forces:R:3 energy=-4.624293763180374 pbc="F F F"
Sc       0.00000000       0.00000000       0.00000000       0.00000000       0.00000000       0.19436905
Sc       0.00000000       0.00000000       5.28484848       0.00000000       0.00000000      -0.19436905
2
Properties=species:S:1:pos:R:3:forces:R:3 energy=-4.613158654930889 pbc="F F F"
Sc       0.00000000       0.00000000       0.00000000       0.00000000       0.00000000       0.17902501
Sc       0.00000000       0.00000000       5.34444444       0.00000000       0.00000000      -0.17902501
2
Properties=species:S:1:pos:R:3:forces:R:3 energy=-4.602998238770837 pbc="F F F"
Sc       0.00000000       0.00000000       0.00000000       0.00000000       0.00000000       0.16159719
Sc       0.00000000       0.00000000       5.40404040       0.00000000       0.00000000      -0.16159719
2
Properties=species:S:1:pos:R:3:forces:R:3 energy=-4.593935002685692 pbc="F F F"
Sc       0.00000000       0.00000000       0.00000000       0.00000000       0.00000000       0.14217137
Sc       0.00000000       0.00000000       5.46363636       0.00000000       0.00000000      -0.14217137
2
Properties=species:S:1:pos:R:3:forces:R:3 energy=-4.586081885406323 pbc="F F F"
Sc       0.00000000       0.00000000       0.00000000       0.00000000       0.00000000       0.12137580
Sc       0.00000000       0.00000000       5.52323232       0.00000000       0.00000000      -0.12137580
2
Properties=species:S:1:pos:R:3:forces:R:3 energy=-4.579475696604892 pbc="F F F"
Sc       0.00000000       0.00000000       0.00000000       0.00000000       0.00000000       0.10026582
Sc       0.00000000       0.00000000       5.58282828       0.00000000       0.00000000      -0.10026582
2
Properties=species:S:1:pos:R:3:forces:R:3 energy=-4.574109421444366 pbc="F F F"
Sc       0.00000000       0.00000000       0.00000000       0.00000000       0.00000000       0.08014806
Sc       0.00000000       0.00000000       5.64242424       0.00000000       0.00000000      -0.08014806
2
Properties=species:S:1:pos:R:3:forces:R:3 energy=-4.569880075769858 pbc="F F F"
Sc       0.00000000       0.00000000       0.00000000       0.00000000       0.00000000       0.06231543
Sc       0.00000000       0.00000000       5.70202020       0.00000000       0.00000000      -0.06231543
2
Properties=species:S:1:pos:R:3:forces:R:3 energy=-4.566613454123533 pbc="F F F"
Sc       0.00000000       0.00000000       0.00000000       0.00000000       0.00000000       0.04783432
Sc       0.00000000       0.00000000       5.76161616       0.00000000       0.00000000      -0.04783432
2
Properties=species:S:1:pos:R:3:forces:R:3 energy=-4.564098541215542 pbc="F F F"
Sc       0.00000000       0.00000000       0.00000000       0.00000000       0.00000000       0.03727577
Sc       0.00000000       0.00000000       5.82121212       0.00000000       0.00000000      -0.03727577
2
Properties=species:S:1:pos:R:3:forces:R:3 energy=-4.562094339699707 pbc="F F F"
Sc       0.00000000       0.00000000       0.00000000       0.00000000       0.00000000       0.03061676
Sc       0.00000000       0.00000000       5.88080808       0.00000000       0.00000000      -0.03061676
2
Properties=species:S:1:pos:R:3:forces:R:3 energy=-4.560386143293825 pbc="F F F"
Sc       0.00000000       0.00000000       0.00000000       0.00000000       0.00000000       0.02711516
Sc       0.00000000       0.00000000       5.94040404       0.00000000       0.00000000      -0.02711516
2
Properties=species:S:1:pos:R:3:forces:R:3 energy=-4.558823800961755 pbc="F F F"
Sc       0.00000000       0.00000000       0.00000000       0.00000000       0.00000000       0.02544594
Sc       0.00000000       0.00000000       6.00000000       0.00000000       0.00000000      -0.02544594
