2
Properties=species:S:1:pos:R:3:forces:R:3 energy=-16063.281263976729 pbc="F F F"
Sc       0.00000000       0.00000000       0.00000000       0.00000000       0.00000000 -110174.67187500
Sc       0.00000000       0.00000000       0.18000000       0.00000000       0.00000000  110174.67187500
2
Properties=species:S:1:pos:R:3:forces:R:3 energy=-18684.55177178923 pbc="F F F"
Sc       0.00000000       0.00000000       0.00000000       0.00000000       0.00000000  -31255.13085938
Sc       0.00000000       0.00000000       0.23878788       0.00000000       0.00000000   31255.13085938
2
Properties=species:S:1:pos:R:3:forces:R:3 energy=-16023.369154595393 pbc="F F F"
Sc       0.00000000       0.00000000       0.00000000       0.00000000       0.00000000   74282.53125000
Sc       0.00000000       0.00000000       0.29757576       0.00000000       0.00000000  -74282.53125000
2
Properties=species:S:1:pos:R:3:forces:R:3 energy=-10666.236342095393 pbc="F F F"
Sc       0.00000000       0.00000000       0.00000000       0.00000000       0.00000000   67789.79687500
Sc       0.00000000       0.00000000       0.35636364       0.00000000       0.00000000  -67789.79687500
2
Properties=species:S:1:pos:R:3:forces:R:3 energy=-5528.173842092227 pbc="F F F"
Sc       0.00000000       0.00000000       0.00000000       0.00000000       0.00000000   84114.52343750
Sc       0.00000000       0.00000000       0.41515152       0.00000000       0.00000000  -84114.52343750
2
Properties=species:S:1:pos:R:3:forces:R:3 energy=-2228.563246379598 pbc="F F F"
Sc       0.00000000       0.00000000       0.00000000       0.00000000       0.00000000   36990.19921875
Sc       0.00000000       0.00000000       0.47393939       0.00000000       0.00000000  -36990.19921875
2
Properties=species:S:1:pos:R:3:forces:R:3 energy=-758.0313860090284 pbc="F F F"
Sc       0.00000000       0.00000000       0.00000000       0.00000000       0.00000000   16016.07324219
Sc       0.00000000       0.00000000       0.53272727       0.00000000       0.00000000  -16016.07324219
2
Properties=species:S:1:pos:R:3:forces:R:3 energy=-150.0148759707524 pbc="F F F"
Sc       0.00000000       0.00000000       0.00000000       0.00000000       0.00000000    5462.69238281
Sc       0.00000000       0.00000000       0.59151515       0.00000000       0.00000000   -5462.69238281
2
Properties=species:S:1:pos:R:3:forces:R:3 energy=7.153078521650188 pbc="F F F"
Sc       0.00000000       0.00000000       0.00000000       0.00000000       0.00000000     794.13824463
Sc       0.00000000       0.00000000       0.65030303       0.00000000       0.00000000    -794.13824463
2
Properties=species:S:1:pos:R:3:forces:R:3 energy=18.243604231149792 pbc="F F F"
Sc       0.00000000       0.00000000       0.00000000       0.00000000       0.00000000      60.53320694
Sc       0.00000000       0.00000000       0.70909091       0.00000000       0.00000000     -60.53320694
2
Properties=species:S:1:pos:R:3:forces:R:3 energy=21.611814190394224 pbc="F F F"
Sc       0.00000000       0.00000000       0.00000000       0.00000000       0.00000000      89.02051544
Sc       0.00000000       0.00000000       0.76787879       0.00000000       0.00000000     -89.02051544
2
Properties=species:S:1:pos:R:3:forces:R:3 energy=26.912931311151638 pbc="F F F"
Sc       0.00000000       0.00000000       0.00000000       0.00000000       0.00000000      51.41280365
Sc       0.00000000       0.00000000       0.82666667       0.00000000       0.00000000     -51.41280365
2
Properties=species:S:1:pos:R:3:forces:R:3 energy=26.4406338992882 pbc="F F F"
Sc       0.00000000       0.00000000       0.00000000       0.00000000       0.00000000     -17.08313179
Sc       0.00000000       0.00000000       0.88545455       0.00000000       0.00000000      17.08313179
2
Properties=species:S:1:pos:R:3:forces:R:3 energy=25.694841868336088 pbc="F F F"
Sc       0.00000000       0.00000000       0.00000000       0.00000000       0.00000000      -8.86974907
Sc       0.00000000       0.00000000       0.94424242       0.00000000       0.00000000       8.86974907
2
Properties=species:S:1:pos:R:3:forces:R:3 energy=25.327452677225622 pbc="F F F"
Sc       0.00000000       0.00000000       0.00000000       0.00000000       0.00000000     -21.93257713
Sc       0.00000000       0.00000000       1.00303030       0.00000000       0.00000000      21.93257713
2
Properties=species:S:1:pos:R:3:forces:R:3 energy=25.20287295916749 pbc="F F F"
Sc       0.00000000       0.00000000       0.00000000       0.00000000       0.00000000      17.31964684
Sc       0.00000000       0.00000000       1.06181818       0.00000000       0.00000000     -17.31964684
2
Properties=species:S:1:pos:R:3:forces:R:3 energy=24.9939390558865 pbc="F F F"
Sc       0.00000000       0.00000000       0.00000000       0.00000000       0.00000000     -24.93253326
Sc       0.00000000       0.00000000       1.12060606       0.00000000       0.00000000      24.93253326
2
Properties=species:S:1:pos:R:3:forces:R:3 energy=22.507589195790167 pbc="F F F"
Sc       0.00000000       0.00000000       0.00000000       0.00000000       0.00000000     -54.56729889
Sc       0.00000000       0.00000000       1.17939394       0.00000000       0.00000000      54.56729889
2
Properties=species:S:1:pos:R:3:forces:R:3 energy=18.949656883629174 pbc="F F F"
Sc       0.00000000       0.00000000       0.00000000       0.00000000       0.00000000     -57.21946335
Sc       0.00000000       0.00000000       1.23818182       0.00000000       0.00000000      57.21946335
2
Properties=species:S:1:pos:R:3:forces:R:3 energy=15.530460754464261 pbc="F F F"
Sc       0.00000000       0.00000000       0.00000000       0.00000000       0.00000000     -56.98032379
Sc       0.00000000       0.00000000       1.29696970       0.00000000       0.00000000      56.98032379
2
Properties=species:S:1:pos:R:3:forces:R:3 energy=12.542466113291027 pbc="F F F"
Sc       0.00000000       0.00000000       0.00000000       0.00000000       0.00000000     -45.47342300
Sc       0.00000000       0.00000000       1.35575758       0.00000000       0.00000000      45.47342300
2
Properties=species:S:1:pos:R:3:forces:R:3 energy=9.963880656011227 pbc="F F F"
Sc       0.00000000       0.00000000       0.00000000       0.00000000       0.00000000     -42.78388977
Sc       0.00000000       0.00000000       1.41454545       0.00000000       0.00000000      42.78388977
2
Properties=species:S:1:pos:R:3:forces:R:3 energy=7.582235402049954 pbc="F F F"
Sc       0.00000000       0.00000000       0.00000000       0.00000000       0.00000000     -37.03432083
Sc       0.00000000       0.00000000       1.47333333       0.00000000       0.00000000      37.03432083
2
Properties=species:S:1:pos:R:3:forces:R:3 energy=5.6219395846814715 pbc="F F F"
Sc       0.00000000       0.00000000       0.00000000       0.00000000       0.00000000     -30.31455994
Sc       0.00000000       0.00000000       1.53212121       0.00000000       0.00000000      30.31455994
2
Properties=species:S:1:pos:R:3:forces:R:3 energy=3.9642532963488883 pbc="F F F"
Sc       0.00000000       0.00000000       0.00000000       0.00000000       0.00000000     -26.68542671
Sc       0.00000000       0.00000000       1.59090909       0.00000000       0.00000000      26.68542671
2
Properties=species:S:1:pos:R:3:forces:R:3 energy=2.4659806053253908 pbc="F F F"
Sc       0.00000000       0.00000000       0.00000000       0.00000000       0.00000000     -23.76130867
Sc       0.00000000       0.00000000       1.64969697       0.00000000       0.00000000      23.76130867
2
Properties=species:S:1:pos:R:3:forces:R:3 energy=1.1301258042873865 pbc="F F F"
Sc       0.00000000       0.00000000       0.00000000       0.00000000       0.00000000     -21.96417046
Sc       0.00000000       0.00000000       1.70848485       0.00000000       0.00000000      21.96417046
2
Properties=species:S:1:pos:R:3:forces:R:3 energy=-0.07519510378056089 pbc="F F F"
Sc       0.00000000       0.00000000       0.00000000       0.00000000       0.00000000     -18.91423988
Sc       0.00000000       0.00000000       1.76727273       0.00000000       0.00000000      18.91423988
2
Properties=species:S:1:pos:R:3:forces:R:3 energy=-1.1400311769501426 pbc="F F F"
Sc       0.00000000       0.00000000       0.00000000       0.00000000       0.00000000     -17.49183655
Sc       0.00000000       0.00000000       1.82606061       0.00000000       0.00000000      17.49183655
2
Properties=species:S:1:pos:R:3:forces:R:3 energy=-2.0971142223684365 pbc="F F F"
Sc       0.00000000       0.00000000       0.00000000       0.00000000       0.00000000     -15.06188393
Sc       0.00000000       0.00000000       1.88484848       0.00000000       0.00000000      15.06188393
2
Properties=species:S:1:pos:R:3:forces:R:3 energy=-2.9096016467539085 pbc="F F F"
Sc       0.00000000       0.00000000       0.00000000       0.00000000       0.00000000     -12.41150665
Sc       0.00000000       0.00000000       1.94363636       0.00000000       0.00000000      12.41150665
2
Properties=species:S:1:pos:R:3:forces:R:3 energy=-3.5551686631184327 pbc="F F F"
Sc       0.00000000       0.00000000       0.00000000       0.00000000       0.00000000      -9.65899181
Sc       0.00000000       0.00000000       2.00242424       0.00000000       0.00000000       9.65899181
2
Properties=species:S:1:pos:R:3:forces:R:3 energy=-4.057247942901806 pbc="F F F"
Sc       0.00000000       0.00000000       0.00000000       0.00000000       0.00000000      -7.50167084
Sc       0.00000000       0.00000000       2.06121212       0.00000000       0.00000000       7.50167084
2
Properties=species:S:1:pos:R:3:forces:R:3 energy=-4.44159949667887 pbc="F F F"
Sc       0.00000000       0.00000000       0.00000000       0.00000000       0.00000000      -5.57575703
Sc       0.00000000       0.00000000       2.12000000       0.00000000       0.00000000       5.57575703
2
Properties=species:S:1:pos:R:3:forces:R:3 energy=-4.720685696334266 pbc="F F F"
Sc       0.00000000       0.00000000       0.00000000       0.00000000       0.00000000      -4.05881071
Sc       0.00000000       0.00000000       2.17878788       0.00000000       0.00000000       4.05881071
2
Properties=species:S:1:pos:R:3:forces:R:3 energy=-4.929266842476769 pbc="F F F"
Sc       0.00000000       0.00000000       0.00000000       0.00000000       0.00000000      -3.06802797
Sc       0.00000000       0.00000000       2.23757576       0.00000000       0.00000000       3.06802797
2
Properties=species:S:1:pos:R:3:forces:R:3 energy=-5.0869278786603624 pbc="F F F"
Sc       0.00000000       0.00000000       0.00000000       0.00000000       0.00000000      -2.34044313
Sc       0.00000000       0.00000000       2.29636364       0.00000000       0.00000000       2.34044313
2
Properties=species:S:1:pos:R:3:forces:R:3 energy=-5.206872336137572 pbc="F F F"
Sc       0.00000000       0.00000000       0.00000000       0.00000000       0.00000000      -1.76095378
Sc       0.00000000       0.00000000       2.35515152       0.00000000       0.00000000       1.76095378
2
Properties=species:S:1:pos:R:3:forces:R:3 energy=-5.297808948587591 pbc="F F F"
Sc       0.00000000       0.00000000       0.00000000       0.00000000       0.00000000      -1.36142683
Sc       0.00000000       0.00000000       2.41393939       0.00000000       0.00000000       1.36142683
2
Properties=species:S:1:pos:R:3:forces:R:3 energy=-5.370082808137653 pbc="F F F"
Sc       0.00000000       0.00000000       0.00000000       0.00000000       0.00000000      -1.13006878
Sc       0.00000000       0.00000000       2.47272727       0.00000000       0.00000000       1.13006878
2
Properties=species:S:1:pos:R:3:forces:R:3 energy=-5.433067911596462 pbc="F F F"
Sc       0.00000000       0.00000000       0.00000000       0.00000000       0.00000000      -1.00960898
Sc       0.00000000       0.00000000       2.53151515       0.00000000       0.00000000       1.00960898
2
Properties=species:S:1:pos:R:3:forces:R:3 energy=-5.4875949192182745 pbc="F F F"
Sc       0.00000000       0.00000000       0.00000000       0.00000000       0.00000000      -0.84238857
Sc       0.00000000       0.00000000       2.59030303       0.00000000       0.00000000       0.84238857
2
Properties=species:S:1:pos:R:3:forces:R:3 energy=-5.532695627208441 pbc="F F F"
Sc       0.00000000       0.00000000       0.00000000       0.00000000       0.00000000      -0.69815600
Sc       0.00000000       0.00000000       2.64909091       0.00000000       0.00000000       0.69815600
2
Properties=species:S:1:pos:R:3:forces:R:3 energy=-5.5697626307236785 pbc="F F F"
Sc       0.00000000       0.00000000       0.00000000       0.00000000       0.00000000      -0.55787545
Sc       0.00000000       0.00000000       2.70787879       0.00000000       0.00000000       0.55787545
2
Properties=species:S:1:pos:R:3:forces:R:3 energy=-5.597511811154304 pbc="F F F"
Sc       0.00000000       0.00000000       0.00000000       0.00000000       0.00000000      -0.38150814
Sc       0.00000000       0.00000000       2.76666667       0.00000000       0.00000000       0.38150814
2
Properties=species:S:1:pos:R:3:forces:R:3 energy=-5.61459194049315 pbc="F F F"
Sc       0.00000000       0.00000000       0.00000000       0.00000000       0.00000000      -0.20342392
Sc       0.00000000       0.00000000       2.82545455       0.00000000       0.00000000       0.20342392
2
Properties=species:S:1:pos:R:3:forces:R:3 energy=-5.622153063706452 pbc="F F F"
Sc       0.00000000       0.00000000       0.00000000       0.00000000       0.00000000      -0.06091394
Sc       0.00000000       0.00000000       2.88424242       0.00000000       0.00000000       0.06091394
2
Properties=species:S:1:pos:R:3:forces:R:3 energy=-5.622551338622325 pbc="F F F"
Sc       0.00000000       0.00000000       0.00000000       0.00000000       0.00000000       0.04155922
Sc       0.00000000       0.00000000       2.94303030       0.00000000       0.00000000      -0.04155922
2
Properties=species:S:1:pos:R:3:forces:R:3 energy=-5.617810801180996 pbc="F F F"
Sc       0.00000000       0.00000000       0.00000000       0.00000000       0.00000000       0.11594601
Sc       0.00000000       0.00000000       3.00181818       0.00000000       0.00000000      -0.11594601
2
Properties=species:S:1:pos:R:3:forces:R:3 energy=-5.609317935356198 pbc="F F F"
Sc       0.00000000       0.00000000       0.00000000       0.00000000       0.00000000       0.16944428
Sc       0.00000000       0.00000000       3.06060606       0.00000000       0.00000000      -0.16944428
2
Properties=species:S:1:pos:R:3:forces:R:3 energy=-5.598332110387914 pbc="F F F"
Sc       0.00000000       0.00000000       0.00000000       0.00000000       0.00000000       0.20098577
Sc       0.00000000       0.00000000       3.11939394       0.00000000       0.00000000      -0.20098577
2
Properties=species:S:1:pos:R:3:forces:R:3 energy=-5.5858405010855225 pbc="F F F"
Sc       0.00000000       0.00000000       0.00000000       0.00000000       0.00000000       0.22541526
Sc       0.00000000       0.00000000       3.17818182       0.00000000       0.00000000      -0.22541526
2
Properties=species:S:1:pos:R:3:forces:R:3 energy=-5.5713585563377075 pbc="F F F"
Sc       0.00000000       0.00000000       0.00000000       0.00000000       0.00000000       0.27274817
Sc       0.00000000       0.00000000       3.23696970       0.00000000       0.00000000      -0.27274817
2
Properties=species:S:1:pos:R:3:forces:R:3 energy=-5.553231701835532 pbc="F F F"
Sc       0.00000000       0.00000000       0.00000000       0.00000000       0.00000000       0.34626290
Sc       0.00000000       0.00000000       3.29575758       0.00000000       0.00000000      -0.34626290
2
Properties=species:S:1:pos:R:3:forces:R:3 energy=-5.530701624360057 pbc="F F F"
Sc       0.00000000       0.00000000       0.00000000       0.00000000       0.00000000       0.41739726
Sc       0.00000000       0.00000000       3.35454545       0.00000000       0.00000000      -0.41739726
2
Properties=species:S:1:pos:R:3:forces:R:3 energy=-5.504610606348208 pbc="F F F"
Sc       0.00000000       0.00000000       0.00000000       0.00000000       0.00000000       0.46633667
Sc       0.00000000       0.00000000       3.41333333       0.00000000       0.00000000      -0.46633667
2
Properties=species:S:1:pos:R:3:forces:R:3 energy=-5.476260139681625 pbc="F F F"
Sc       0.00000000       0.00000000       0.00000000       0.00000000       0.00000000       0.49581620
Sc       0.00000000       0.00000000       3.47212121       0.00000000       0.00000000      -0.49581620
2
Properties=species:S:1:pos:R:3:forces:R:3 energy=-5.4464755055449166 pbc="F F F"
Sc       0.00000000       0.00000000       0.00000000       0.00000000       0.00000000       0.51689583
Sc       0.00000000       0.00000000       3.53090909       0.00000000       0.00000000      -0.51689583
2
Properties=species:S:1:pos:R:3:forces:R:3 energy=-5.415488960635072 pbc="F F F"
Sc       0.00000000       0.00000000       0.00000000       0.00000000       0.00000000       0.53745121
Sc       0.00000000       0.00000000       3.58969697       0.00000000       0.00000000      -0.53745121
2
Properties=species:S:1:pos:R:3:forces:R:3 energy=-5.3832468052210825 pbc="F F F"
Sc       0.00000000       0.00000000       0.00000000       0.00000000       0.00000000       0.55973279
Sc       0.00000000       0.00000000       3.64848485       0.00000000       0.00000000      -0.55973279
2
Properties=species:S:1:pos:R:3:forces:R:3 energy=-5.3496692226227065 pbc="F F F"
Sc       0.00000000       0.00000000       0.00000000       0.00000000       0.00000000       0.58257091
Sc       0.00000000       0.00000000       3.70727273       0.00000000       0.00000000      -0.58257091
2
Properties=species:S:1:pos:R:3:forces:R:3 energy=-5.314780110890229 pbc="F F F"
Sc       0.00000000       0.00000000       0.00000000       0.00000000       0.00000000       0.60389870
Sc       0.00000000       0.00000000       3.76606061       0.00000000       0.00000000      -0.60389870
2
Properties=species:S:1:pos:R:3:forces:R:3 energy=-5.27872989586107 pbc="F F F"
Sc       0.00000000       0.00000000       0.00000000       0.00000000       0.00000000       0.62186515
Sc       0.00000000       0.00000000       3.82484848       0.00000000       0.00000000      -0.62186515
2
Properties=species:S:1:pos:R:3:forces:R:3 energy=-5.24175899817793 pbc="F F F"
Sc       0.00000000       0.00000000       0.00000000       0.00000000       0.00000000       0.63499933
Sc       0.00000000       0.00000000       3.88363636       0.00000000       0.00000000      -0.63499933
2
Properties=species:S:1:pos:R:3:forces:R:3 energy=-5.204186768696246 pbc="F F F"
Sc       0.00000000       0.00000000       0.00000000       0.00000000       0.00000000       0.64227557
Sc       0.00000000       0.00000000       3.94242424       0.00000000       0.00000000      -0.64227557
2
Properties=species:S:1:pos:R:3:forces:R:3 energy=-5.166365173267543 pbc="F F F"
Sc       0.00000000       0.00000000       0.00000000       0.00000000       0.00000000       0.64330345
Sc       0.00000000       0.00000000       4.00121212       0.00000000       0.00000000      -0.64330345
2
Properties=species:S:1:pos:R:3:forces:R:3 energy=-5.128663964774183 pbc="F F F"
Sc       0.00000000       0.00000000       0.00000000       0.00000000       0.00000000       0.63844615
Sc       0.00000000       0.00000000       4.06000000       0.00000000       0.00000000      -0.63844615
2
Properties=species:S:1:pos:R:3:forces:R:3 energy=-5.0913967653703605 pbc="F F F"
Sc       0.00000000       0.00000000       0.00000000       0.00000000       0.00000000       0.62866658
Sc       0.00000000       0.00000000       4.11878788       0.00000000       0.00000000      -0.62866658
2
Properties=species:S:1:pos:R:3:forces:R:3 energy=-5.054823851477324 pbc="F F F"
Sc       0.00000000       0.00000000       0.00000000       0.00000000       0.00000000       0.61508495
Sc       0.00000000       0.00000000       4.17757576       0.00000000       0.00000000      -0.61508495
2
Properties=species:S:1:pos:R:3:forces:R:3 energy=-5.0191341290060265 pbc="F F F"
Sc       0.00000000       0.00000000       0.00000000       0.00000000       0.00000000       0.59855270
Sc       0.00000000       0.00000000       4.23636364       0.00000000       0.00000000      -0.59855270
2
Properties=species:S:1:pos:R:3:forces:R:3 energy=-4.984494730757223 pbc="F F F"
Sc       0.00000000       0.00000000       0.00000000       0.00000000       0.00000000       0.57947361
Sc       0.00000000       0.00000000       4.29515152       0.00000000       0.00000000      -0.57947361
2
Properties=species:S:1:pos:R:3:forces:R:3 energy=-4.951054004157306 pbc="F F F"
Sc       0.00000000       0.00000000       0.00000000       0.00000000       0.00000000       0.55792361
Sc       0.00000000       0.00000000       4.35393939       0.00000000       0.00000000      -0.55792361
2
Properties=species:S:1:pos:R:3:forces:R:3 energy=-4.918946891179411 pbc="F F F"
Sc       0.00000000       0.00000000       0.00000000       0.00000000       0.00000000       0.53388715
Sc       0.00000000       0.00000000       4.41272727       0.00000000       0.00000000      -0.53388715
2
Properties=species:S:1:pos:R:3:forces:R:3 energy=-4.888325528284921 pbc="F F F"
Sc       0.00000000       0.00000000       0.00000000       0.00000000       0.00000000       0.50748259
Sc       0.00000000       0.00000000       4.47151515       0.00000000       0.00000000      -0.50748259
2
Properties=species:S:1:pos:R:3:forces:R:3 energy=-4.85931911607444 pbc="F F F"
Sc       0.00000000       0.00000000       0.00000000       0.00000000       0.00000000       0.47905123
Sc       0.00000000       0.00000000       4.53030303       0.00000000       0.00000000      -0.47905123
2
Properties=species:S:1:pos:R:3:forces:R:3 energy=-4.832030728811346 pbc="F F F"
Sc       0.00000000       0.00000000       0.00000000       0.00000000       0.00000000       0.44915134
Sc       0.00000000       0.00000000       4.58909091       0.00000000       0.00000000      -0.44915134
2
Properties=species:S:1:pos:R:3:forces:R:3 energy=-4.806522983964464 pbc="F F F"
Sc       0.00000000       0.00000000       0.00000000       0.00000000       0.00000000       0.41850251
Sc       0.00000000       0.00000000       4.64787879       0.00000000       0.00000000      -0.41850251
2
Properties=species:S:1:pos:R:3:forces:R:3 energy=-4.782822626845964 pbc="F F F"
Sc       0.00000000       0.00000000       0.00000000       0.00000000       0.00000000       0.38790908
Sc       0.00000000       0.00000000       4.70666667       0.00000000       0.00000000      -0.38790908
2
Properties=species:S:1:pos:R:3:forces:R:3 energy=-4.760896346628662 pbc="F F F"
Sc       0.00000000       0.00000000       0.00000000       0.00000000       0.00000000       0.35822159
Sc       0.00000000       0.00000000       4.76545455       0.00000000       0.00000000      -0.35822159
2
Properties=species:S:1:pos:R:3:forces:R:3 energy=-4.740671788859197 pbc="F F F"
Sc       0.00000000       0.00000000       0.00000000       0.00000000       0.00000000       0.33025289
Sc       0.00000000       0.00000000       4.82424242       0.00000000       0.00000000      -0.33025289
2
Properties=species:S:1:pos:R:3:forces:R:3 energy=-4.722023849221527 pbc="F F F"
Sc       0.00000000       0.00000000       0.00000000       0.00000000       0.00000000       0.30471250
Sc       0.00000000       0.00000000       4.88303030       0.00000000       0.00000000      -0.30471250
2
Properties=species:S:1:pos:R:3:forces:R:3 energy=-4.704785971908901 pbc="F F F"
Sc       0.00000000       0.00000000       0.00000000       0.00000000       0.00000000       0.28210026
Sc       0.00000000       0.00000000       4.94181818       0.00000000       0.00000000      -0.28210026
2
Properties=species:S:1:pos:R:3:forces:R:3 energy=-4.688791011899651 pbc="F F F"
Sc       0.00000000       0.00000000       0.00000000       0.00000000       0.00000000       0.26259837
Sc       0.00000000       0.00000000       5.00060606       0.00000000       0.00000000      -0.26259837
2
Properties=species:S:1:pos:R:3:forces:R:3 energy=-4.673854011798692 pbc="F F F"
Sc       0.00000000       0.00000000       0.00000000       0.00000000       0.00000000       0.24598686
Sc       0.00000000       0.00000000       5.05939394       0.00000000       0.00000000      -0.24598686
2
Properties=species:S:1:pos:R:3:forces:R:3 energy=-4.659823459496132 pbc="F F F"
Sc       0.00000000       0.00000000       0.00000000       0.00000000       0.00000000       0.23164153
Sc       0.00000000       0.00000000       5.11818182       0.00000000       0.00000000      -0.23164153
2
Properties=species:S:1:pos:R:3:forces:R:3 energy=-4.646593685933379 pbc="F F F"
Sc       0.00000000       0.00000000       0.00000000       0.00000000       0.00000000       0.21860173
Sc       0.00000000       0.00000000       5.17696970       0.00000000       0.00000000      -0.21860173
2
Properties=species:S:1:pos:R:3:forces:R:3 energy=-4.634119081518871 pbc="F F F"
Sc       0.00000000       0.00000000       0.00000000       0.00000000       0.00000000       0.20574343
Sc       0.00000000       0.00000000       5.23575758       0.00000000       0.00000000      -0.20574343
2
Properties=species:S:1:pos:R:3:forces:R:3 energy=-4.622421744529536 pbc="F F F"
Sc       0.00000000       0.00000000       0.00000000       0.00000000       0.00000000       0.19200099
Sc       0.00000000       0.00000000       5.29454545       0.00000000       0.00000000      -0.19200099
2
Properties=species:S:1:pos:R:3:forces:R:3 energy=-4.6115762286573805 pbc="F F F"
Sc       0.00000000       0.00000000       0.00000000       0.00000000       0.00000000       0.17656425
Sc       0.00000000       0.00000000       5.35333333       0.00000000       0.00000000      -0.17656425
2
Properties=species:S:1:pos:R:3:forces:R:3 energy=-4.601701818580286 pbc="F F F"
Sc       0.00000000       0.00000000       0.00000000       0.00000000       0.00000000       0.15906978
Sc       0.00000000       0.00000000       5.41212121       0.00000000       0.00000000      -0.15906978
2
Properties=species:S:1:pos:R:3:forces:R:3 energy=-4.592912162621285 pbc="F F F"
Sc       0.00000000       0.00000000       0.00000000       0.00000000       0.00000000       0.13968740
Sc       0.00000000       0.00000000       5.47090909       0.00000000       0.00000000      -0.13968740
2
Properties=species:S:1:pos:R:3:forces:R:3 energy=-4.585302855975513 pbc="F F F"
Sc       0.00000000       0.00000000       0.00000000       0.00000000       0.00000000       0.11907808
Sc       0.00000000       0.00000000       5.52969697       0.00000000       0.00000000      -0.11907808
2
Properties=species:S:1:pos:R:3:forces:R:3 energy=-4.578914282257913 pbc="F F F"
Sc       0.00000000       0.00000000       0.00000000       0.00000000       0.00000000       0.09829256
Sc       0.00000000       0.00000000       5.58848485       0.00000000       0.00000000      -0.09829256
2
Properties=species:S:1:pos:R:3:forces:R:3 energy=-4.573725137355814 pbc="F F F"
Sc       0.00000000       0.00000000       0.00000000       0.00000000       0.00000000       0.07859303
Sc       0.00000000       0.00000000       5.64727273       0.00000000       0.00000000      -0.07859303
2
Properties=species:S:1:pos:R:3:forces:R:3 energy=-4.569628508375471 pbc="F F F"
Sc       0.00000000       0.00000000       0.00000000       0.00000000       0.00000000       0.06122124
Sc       0.00000000       0.00000000       5.70606061       0.00000000       0.00000000      -0.06122124
2
Properties=species:S:1:pos:R:3:forces:R:3 energy=-4.5664606200879065 pbc="F F F"
Sc       0.00000000       0.00000000       0.00000000       0.00000000       0.00000000       0.04715059
Sc       0.00000000       0.00000000       5.76484848       0.00000000       0.00000000      -0.04715059
2
Properties=species:S:1:pos:R:3:forces:R:3 energy=-4.564010571244868 pbc="F F F"
Sc       0.00000000       0.00000000       0.00000000       0.00000000       0.00000000       0.03693028
Sc       0.00000000       0.00000000       5.82363636       0.00000000       0.00000000      -0.03693028
2
Properties=species:S:1:pos:R:3:forces:R:3 energy=-4.56204498122342 pbc="F F F"
Sc       0.00000000       0.00000000       0.00000000       0.00000000       0.00000000       0.03048160
Sc       0.00000000       0.00000000       5.88242424       0.00000000       0.00000000      -0.03048160
2
Properties=species:S:1:pos:R:3:forces:R:3 energy=-4.5603644848938 pbc="F F F"
Sc       0.00000000       0.00000000       0.00000000       0.00000000       0.00000000       0.02708410
Sc       0.00000000       0.00000000       5.94121212       0.00000000       0.00000000      -0.02708410
2
Properties=species:S:1:pos:R:3:forces:R:3 energy=-4.558823800961755 pbc="F F F"
Sc       0.00000000       0.00000000       0.00000000       0.00000000       0.00000000       0.02544594
Sc       0.00000000       0.00000000       6.00000000       0.00000000       0.00000000      -0.02544594
