2
Properties=species:S:1:pos:R:3:forces:R:3 energy=6154034.960443034 pbc="F F F"
Se       0.00000000       0.00000000       0.00000000       0.00000000       0.00000000 -59365708.00000000
Se       0.00000000       0.00000000       0.18000000       0.00000000       0.00000000 59365708.00000000
2
Properties=species:S:1:pos:R:3:forces:R:3 energy=3150881.9604430343 pbc="F F F"
Se       0.00000000       0.00000000       0.00000000       0.00000000       0.00000000 -41520260.00000000
Se       0.00000000       0.00000000       0.23878788       0.00000000       0.00000000 41520260.00000000
2
Properties=species:S:1:pos:R:3:forces:R:3 energy=1293356.2104430373 pbc="F F F"
Se       0.00000000       0.00000000       0.00000000       0.00000000       0.00000000 -22155054.00000000
Se       0.00000000       0.00000000       0.29757576       0.00000000       0.00000000 22155054.00000000
2
Properties=species:S:1:pos:R:3:forces:R:3 energy=421917.17919304053 pbc="F F F"
Se       0.00000000       0.00000000       0.00000000       0.00000000       0.00000000 -8658244.00000000
Se       0.00000000       0.00000000       0.35636364       0.00000000       0.00000000 8658244.00000000
2
Properties=species:S:1:pos:R:3:forces:R:3 energy=119713.48388055005 pbc="F F F"
Se       0.00000000       0.00000000       0.00000000       0.00000000       0.00000000 -2583974.00000000
Se       0.00000000       0.00000000       0.41515152       0.00000000       0.00000000 2583974.00000000
2
Properties=species:S:1:pos:R:3:forces:R:3 energy=20765.958489950386 pbc="F F F"
Se       0.00000000       0.00000000       0.00000000       0.00000000       0.00000000 -696654.12500000
Se       0.00000000       0.00000000       0.47393939       0.00000000       0.00000000  696654.12500000
2
Properties=species:S:1:pos:R:3:forces:R:3 energy=2865.5881286634417 pbc="F F F"
Se       0.00000000       0.00000000       0.00000000       0.00000000       0.00000000  -92990.92968750
Se       0.00000000       0.00000000       0.53272727       0.00000000       0.00000000   92990.92968750
2
Properties=species:S:1:pos:R:3:forces:R:3 energy=756.1798645761454 pbc="F F F"
Se       0.00000000       0.00000000       0.00000000       0.00000000       0.00000000  -12786.25585938
Se       0.00000000       0.00000000       0.59151515       0.00000000       0.00000000   12786.25585938
2
Properties=species:S:1:pos:R:3:forces:R:3 energy=447.92006855077665 pbc="F F F"
Se       0.00000000       0.00000000       0.00000000       0.00000000       0.00000000   -8138.04589844
Se       0.00000000       0.00000000       0.65030303       0.00000000       0.00000000    8138.04589844
2
Properties=species:S:1:pos:R:3:forces:R:3 energy=122.35090064685785 pbc="F F F"
Se       0.00000000       0.00000000       0.00000000       0.00000000       0.00000000   -1900.35144043
Se       0.00000000       0.00000000       0.70909091       0.00000000       0.00000000    1900.35144043
2
Properties=species:S:1:pos:R:3:forces:R:3 energy=27.715990348465752 pbc="F F F"
Se       0.00000000       0.00000000       0.00000000       0.00000000       0.00000000   -1468.01086426
Se       0.00000000       0.00000000       0.76787879       0.00000000       0.00000000    1468.01086426
2
Properties=species:S:1:pos:R:3:forces:R:3 energy=-66.4082462939286 pbc="F F F"
Se       0.00000000       0.00000000       0.00000000       0.00000000       0.00000000   -1665.19726562
Se       0.00000000       0.00000000       0.82666667       0.00000000       0.00000000    1665.19726562
2
Properties=species:S:1:pos:R:3:forces:R:3 energy=-149.94073928335098 pbc="F F F"
Se       0.00000000       0.00000000       0.00000000       0.00000000       0.00000000   -1045.56396484
Se       0.00000000       0.00000000       0.88545455       0.00000000       0.00000000    1045.56396484
2
Properties=species:S:1:pos:R:3:forces:R:3 energy=-169.76095938797593 pbc="F F F"
Se       0.00000000       0.00000000       0.00000000       0.00000000       0.00000000     431.32156372
Se       0.00000000       0.00000000       0.94424242       0.00000000       0.00000000    -431.32156372
2
Properties=species:S:1:pos:R:3:forces:R:3 energy=-114.96601346536941 pbc="F F F"
Se       0.00000000       0.00000000       0.00000000       0.00000000       0.00000000    1155.03906250
Se       0.00000000       0.00000000       1.00303030       0.00000000       0.00000000   -1155.03906250
2
Properties=species:S:1:pos:R:3:forces:R:3 energy=-47.26564111189106 pbc="F F F"
Se       0.00000000       0.00000000       0.00000000       0.00000000       0.00000000    1180.76574707
Se       0.00000000       0.00000000       1.06181818       0.00000000       0.00000000   -1180.76574707
2
Properties=species:S:1:pos:R:3:forces:R:3 energy=17.91895416688386 pbc="F F F"
Se       0.00000000       0.00000000       0.00000000       0.00000000       0.00000000    1124.38208008
Se       0.00000000       0.00000000       1.12060606       0.00000000       0.00000000   -1124.38208008
2
Properties=species:S:1:pos:R:3:forces:R:3 energy=61.98556149913308 pbc="F F F"
Se       0.00000000       0.00000000       0.00000000       0.00000000       0.00000000     290.12225342
Se       0.00000000       0.00000000       1.17939394       0.00000000       0.00000000    -290.12225342
2
Properties=species:S:1:pos:R:3:forces:R:3 energy=66.94686872318535 pbc="F F F"
Se       0.00000000       0.00000000       0.00000000       0.00000000       0.00000000     -81.16336060
Se       0.00000000       0.00000000       1.23818182       0.00000000       0.00000000      81.16336060
2
Properties=species:S:1:pos:R:3:forces:R:3 energy=56.58572819879372 pbc="F F F"
Se       0.00000000       0.00000000       0.00000000       0.00000000       0.00000000    -232.72616577
Se       0.00000000       0.00000000       1.29696970       0.00000000       0.00000000     232.72616577
2
Properties=species:S:1:pos:R:3:forces:R:3 energy=43.41468667117329 pbc="F F F"
Se       0.00000000       0.00000000       0.00000000       0.00000000       0.00000000    -212.28755188
Se       0.00000000       0.00000000       1.35575758       0.00000000       0.00000000     212.28755188
2
Properties=species:S:1:pos:R:3:forces:R:3 energy=32.091382934051055 pbc="F F F"
Se       0.00000000       0.00000000       0.00000000       0.00000000       0.00000000    -171.76402283
Se       0.00000000       0.00000000       1.41454545       0.00000000       0.00000000     171.76402283
2
Properties=species:S:1:pos:R:3:forces:R:3 energy=23.01889726543891 pbc="F F F"
Se       0.00000000       0.00000000       0.00000000       0.00000000       0.00000000    -138.20103455
Se       0.00000000       0.00000000       1.47333333       0.00000000       0.00000000     138.20103455
2
Properties=species:S:1:pos:R:3:forces:R:3 energy=15.695869101540849 pbc="F F F"
Se       0.00000000       0.00000000       0.00000000       0.00000000       0.00000000    -112.24310303
Se       0.00000000       0.00000000       1.53212121       0.00000000       0.00000000     112.24310303
2
Properties=species:S:1:pos:R:3:forces:R:3 energy=9.829904165427074 pbc="F F F"
Se       0.00000000       0.00000000       0.00000000       0.00000000       0.00000000     -87.38968658
Se       0.00000000       0.00000000       1.59090909       0.00000000       0.00000000      87.38968658
2
Properties=species:S:1:pos:R:3:forces:R:3 energy=5.311004191254111 pbc="F F F"
Se       0.00000000       0.00000000       0.00000000       0.00000000       0.00000000     -67.05590820
Se       0.00000000       0.00000000       1.64969697       0.00000000       0.00000000      67.05590820
2
Properties=species:S:1:pos:R:3:forces:R:3 energy=1.9010877252952325 pbc="F F F"
Se       0.00000000       0.00000000       0.00000000       0.00000000       0.00000000     -49.26830292
Se       0.00000000       0.00000000       1.70848485       0.00000000       0.00000000      49.26830292
2
Properties=species:S:1:pos:R:3:forces:R:3 energy=-0.5608859536854202 pbc="F F F"
Se       0.00000000       0.00000000       0.00000000       0.00000000       0.00000000     -35.62698746
Se       0.00000000       0.00000000       1.76727273       0.00000000       0.00000000      35.62698746
2
Properties=species:S:1:pos:R:3:forces:R:3 energy=-2.381210224026736 pbc="F F F"
Se       0.00000000       0.00000000       0.00000000       0.00000000       0.00000000     -26.35913467
Se       0.00000000       0.00000000       1.82606061       0.00000000       0.00000000      26.35913467
2
Properties=species:S:1:pos:R:3:forces:R:3 energy=-3.6533692008236174 pbc="F F F"
Se       0.00000000       0.00000000       0.00000000       0.00000000       0.00000000     -17.34040070
Se       0.00000000       0.00000000       1.88484848       0.00000000       0.00000000      17.34040070
2
Properties=species:S:1:pos:R:3:forces:R:3 energy=-4.480533084232387 pbc="F F F"
Se       0.00000000       0.00000000       0.00000000       0.00000000       0.00000000     -11.17009830
Se       0.00000000       0.00000000       1.94363636       0.00000000       0.00000000      11.17009830
2
Properties=species:S:1:pos:R:3:forces:R:3 energy=-5.002018083126513 pbc="F F F"
Se       0.00000000       0.00000000       0.00000000       0.00000000       0.00000000      -6.80833197
Se       0.00000000       0.00000000       2.00242424       0.00000000       0.00000000       6.80833197
2
Properties=species:S:1:pos:R:3:forces:R:3 energy=-5.303720648488554 pbc="F F F"
Se       0.00000000       0.00000000       0.00000000       0.00000000       0.00000000      -3.65766072
Se       0.00000000       0.00000000       2.06121212       0.00000000       0.00000000       3.65766072
2
Properties=species:S:1:pos:R:3:forces:R:3 energy=-5.45536912961698 pbc="F F F"
Se       0.00000000       0.00000000       0.00000000       0.00000000       0.00000000      -1.65623581
Se       0.00000000       0.00000000       2.12000000       0.00000000       0.00000000       1.65623581
2
Properties=species:S:1:pos:R:3:forces:R:3 energy=-5.5136493941808755 pbc="F F F"
Se       0.00000000       0.00000000       0.00000000       0.00000000       0.00000000      -0.44736543
Se       0.00000000       0.00000000       2.17878788       0.00000000       0.00000000       0.44736543
2
Properties=species:S:1:pos:R:3:forces:R:3 energy=-5.516904059279212 pbc="F F F"
Se       0.00000000       0.00000000       0.00000000       0.00000000       0.00000000       0.30728319
Se       0.00000000       0.00000000       2.23757576       0.00000000       0.00000000      -0.30728319
2
Properties=species:S:1:pos:R:3:forces:R:3 energy=-5.4798361866009495 pbc="F F F"
Se       0.00000000       0.00000000       0.00000000       0.00000000       0.00000000       0.93910146
Se       0.00000000       0.00000000       2.29636364       0.00000000       0.00000000      -0.93910146
2
Properties=species:S:1:pos:R:3:forces:R:3 energy=-5.4081201401523895 pbc="F F F"
Se       0.00000000       0.00000000       0.00000000       0.00000000       0.00000000       1.48783958
Se       0.00000000       0.00000000       2.35515152       0.00000000       0.00000000      -1.48783958
2
Properties=species:S:1:pos:R:3:forces:R:3 energy=-5.304111001474653 pbc="F F F"
Se       0.00000000       0.00000000       0.00000000       0.00000000       0.00000000       2.08004379
Se       0.00000000       0.00000000       2.41393939       0.00000000       0.00000000      -2.08004379
2
Properties=species:S:1:pos:R:3:forces:R:3 energy=-5.159910747477709 pbc="F F F"
Se       0.00000000       0.00000000       0.00000000       0.00000000       0.00000000       2.84331584
Se       0.00000000       0.00000000       2.47272727       0.00000000       0.00000000      -2.84331584
2
Properties=species:S:1:pos:R:3:forces:R:3 energy=-4.970445960998686 pbc="F F F"
Se       0.00000000       0.00000000       0.00000000       0.00000000       0.00000000       3.57465482
Se       0.00000000       0.00000000       2.53151515       0.00000000       0.00000000      -3.57465482
2
Properties=species:S:1:pos:R:3:forces:R:3 energy=-4.744465584011728 pbc="F F F"
Se       0.00000000       0.00000000       0.00000000       0.00000000       0.00000000       4.06644917
Se       0.00000000       0.00000000       2.59030303       0.00000000       0.00000000      -4.06644917
2
Properties=species:S:1:pos:R:3:forces:R:3 energy=-4.497642634837518 pbc="F F F"
Se       0.00000000       0.00000000       0.00000000       0.00000000       0.00000000       4.28851795
Se       0.00000000       0.00000000       2.64909091       0.00000000       0.00000000      -4.28851795
2
Properties=species:S:1:pos:R:3:forces:R:3 energy=-4.244782918725264 pbc="F F F"
Se       0.00000000       0.00000000       0.00000000       0.00000000       0.00000000       4.27930355
Se       0.00000000       0.00000000       2.70787879       0.00000000       0.00000000      -4.27930355
2
Properties=species:S:1:pos:R:3:forces:R:3 energy=-3.9979022151944568 pbc="F F F"
Se       0.00000000       0.00000000       0.00000000       0.00000000       0.00000000       4.09724855
Se       0.00000000       0.00000000       2.76666667       0.00000000       0.00000000      -4.09724855
2
Properties=species:S:1:pos:R:3:forces:R:3 energy=-3.7650012398578525 pbc="F F F"
Se       0.00000000       0.00000000       0.00000000       0.00000000       0.00000000       3.81427240
Se       0.00000000       0.00000000       2.82545455       0.00000000       0.00000000      -3.81427240
2
Properties=species:S:1:pos:R:3:forces:R:3 energy=-3.550472798334298 pbc="F F F"
Se       0.00000000       0.00000000       0.00000000       0.00000000       0.00000000       3.47778201
Se       0.00000000       0.00000000       2.88424242       0.00000000       0.00000000      -3.47778201
2
Properties=species:S:1:pos:R:3:forces:R:3 energy=-3.356592420386963 pbc="F F F"
Se       0.00000000       0.00000000       0.00000000       0.00000000       0.00000000       3.11607313
Se       0.00000000       0.00000000       2.94303030       0.00000000       0.00000000      -3.11607313
2
Properties=species:S:1:pos:R:3:forces:R:3 energy=-3.184056250412809 pbc="F F F"
Se       0.00000000       0.00000000       0.00000000       0.00000000       0.00000000       2.75643659
Se       0.00000000       0.00000000       3.00181818       0.00000000       0.00000000      -2.75643659
2
Properties=species:S:1:pos:R:3:forces:R:3 energy=-3.0319645935526567 pbc="F F F"
Se       0.00000000       0.00000000       0.00000000       0.00000000       0.00000000       2.42368793
Se       0.00000000       0.00000000       3.06060606       0.00000000       0.00000000      -2.42368793
2
Properties=species:S:1:pos:R:3:forces:R:3 energy=-2.8983661262728715 pbc="F F F"
Se       0.00000000       0.00000000       0.00000000       0.00000000       0.00000000       2.12766552
Se       0.00000000       0.00000000       3.11939394       0.00000000       0.00000000      -2.12766552
2
Properties=species:S:1:pos:R:3:forces:R:3 energy=-2.7810591380144305 pbc="F F F"
Se       0.00000000       0.00000000       0.00000000       0.00000000       0.00000000       1.86964667
Se       0.00000000       0.00000000       3.17818182       0.00000000       0.00000000      -1.86964667
2
Properties=species:S:1:pos:R:3:forces:R:3 energy=-2.677777811299013 pbc="F F F"
Se       0.00000000       0.00000000       0.00000000       0.00000000       0.00000000       1.65022671
Se       0.00000000       0.00000000       3.23696970       0.00000000       0.00000000      -1.65022671
2
Properties=species:S:1:pos:R:3:forces:R:3 energy=-2.5863696621726526 pbc="F F F"
Se       0.00000000       0.00000000       0.00000000       0.00000000       0.00000000       1.46440148
Se       0.00000000       0.00000000       3.29575758       0.00000000       0.00000000      -1.46440148
2
Properties=species:S:1:pos:R:3:forces:R:3 energy=-2.50513813736852 pbc="F F F"
Se       0.00000000       0.00000000       0.00000000       0.00000000       0.00000000       1.30226719
Se       0.00000000       0.00000000       3.35454545       0.00000000       0.00000000      -1.30226719
2
Properties=species:S:1:pos:R:3:forces:R:3 energy=-2.4329678577527796 pbc="F F F"
Se       0.00000000       0.00000000       0.00000000       0.00000000       0.00000000       1.15495634
Se       0.00000000       0.00000000       3.41333333       0.00000000       0.00000000      -1.15495634
2
Properties=species:S:1:pos:R:3:forces:R:3 energy=-2.3691349036598885 pbc="F F F"
Se       0.00000000       0.00000000       0.00000000       0.00000000       0.00000000       1.01841664
Se       0.00000000       0.00000000       3.47212121       0.00000000       0.00000000      -1.01841664
2
Properties=species:S:1:pos:R:3:forces:R:3 energy=-2.3130075322196437 pbc="F F F"
Se       0.00000000       0.00000000       0.00000000       0.00000000       0.00000000       0.89306730
Se       0.00000000       0.00000000       3.53090909       0.00000000       0.00000000      -0.89306730
2
Properties=species:S:1:pos:R:3:forces:R:3 energy=-2.263879653483013 pbc="F F F"
Se       0.00000000       0.00000000       0.00000000       0.00000000       0.00000000       0.78049010
Se       0.00000000       0.00000000       3.58969697       0.00000000       0.00000000      -0.78049010
2
Properties=species:S:1:pos:R:3:forces:R:3 energy=-2.220985637716619 pbc="F F F"
Se       0.00000000       0.00000000       0.00000000       0.00000000       0.00000000       0.68080598
Se       0.00000000       0.00000000       3.64848485       0.00000000       0.00000000      -0.68080598
2
Properties=species:S:1:pos:R:3:forces:R:3 energy=-2.183609084959961 pbc="F F F"
Se       0.00000000       0.00000000       0.00000000       0.00000000       0.00000000       0.59260577
Se       0.00000000       0.00000000       3.70727273       0.00000000       0.00000000      -0.59260577
2
Properties=species:S:1:pos:R:3:forces:R:3 energy=-2.1511218559803043 pbc="F F F"
Se       0.00000000       0.00000000       0.00000000       0.00000000       0.00000000       0.51411486
Se       0.00000000       0.00000000       3.76606061       0.00000000       0.00000000      -0.51411486
2
Properties=species:S:1:pos:R:3:forces:R:3 energy=-2.1229987813646716 pbc="F F F"
Se       0.00000000       0.00000000       0.00000000       0.00000000       0.00000000       0.44397888
Se       0.00000000       0.00000000       3.82484848       0.00000000       0.00000000      -0.44397888
2
Properties=species:S:1:pos:R:3:forces:R:3 energy=-2.0987738796163984 pbc="F F F"
Se       0.00000000       0.00000000       0.00000000       0.00000000       0.00000000       0.38130295
Se       0.00000000       0.00000000       3.88363636       0.00000000       0.00000000      -0.38130295
2
Properties=species:S:1:pos:R:3:forces:R:3 energy=-2.0780329385007006 pbc="F F F"
Se       0.00000000       0.00000000       0.00000000       0.00000000       0.00000000       0.32537860
Se       0.00000000       0.00000000       3.94242424       0.00000000       0.00000000      -0.32537860
2
Properties=species:S:1:pos:R:3:forces:R:3 energy=-2.0603997231970395 pbc="F F F"
Se       0.00000000       0.00000000       0.00000000       0.00000000       0.00000000       0.27547139
Se       0.00000000       0.00000000       4.00121212       0.00000000       0.00000000      -0.27547139
2
Properties=species:S:1:pos:R:3:forces:R:3 energy=-2.045541075788046 pbc="F F F"
Se       0.00000000       0.00000000       0.00000000       0.00000000       0.00000000       0.23082024
Se       0.00000000       0.00000000       4.06000000       0.00000000       0.00000000      -0.23082024
2
Properties=species:S:1:pos:R:3:forces:R:3 energy=-2.0331715743412344 pbc="F F F"
Se       0.00000000       0.00000000       0.00000000       0.00000000       0.00000000       0.19076607
Se       0.00000000       0.00000000       4.11878788       0.00000000       0.00000000      -0.19076607
2
Properties=species:S:1:pos:R:3:forces:R:3 energy=-2.0230305370194603 pbc="F F F"
Se       0.00000000       0.00000000       0.00000000       0.00000000       0.00000000       0.15487136
Se       0.00000000       0.00000000       4.17757576       0.00000000       0.00000000      -0.15487136
2
Properties=species:S:1:pos:R:3:forces:R:3 energy=-2.0148833638933707 pbc="F F F"
Se       0.00000000       0.00000000       0.00000000       0.00000000       0.00000000       0.12295911
Se       0.00000000       0.00000000       4.23636364       0.00000000       0.00000000      -0.12295911
2
Properties=species:S:1:pos:R:3:forces:R:3 energy=-2.008495694284111 pbc="F F F"
Se       0.00000000       0.00000000       0.00000000       0.00000000       0.00000000       0.09502972
Se       0.00000000       0.00000000       4.29515152       0.00000000       0.00000000      -0.09502972
2
Properties=species:S:1:pos:R:3:forces:R:3 energy=-2.0036323548865207 pbc="F F F"
Se       0.00000000       0.00000000       0.00000000       0.00000000       0.00000000       0.07112878
Se       0.00000000       0.00000000       4.35393939       0.00000000       0.00000000      -0.07112878
2
Properties=species:S:1:pos:R:3:forces:R:3 energy=-2.0000529922069767 pbc="F F F"
Se       0.00000000       0.00000000       0.00000000       0.00000000       0.00000000       0.05122166
Se       0.00000000       0.00000000       4.41272727       0.00000000       0.00000000      -0.05122166
2
Properties=species:S:1:pos:R:3:forces:R:3 energy=-1.9975335476585376 pbc="F F F"
Se       0.00000000       0.00000000       0.00000000       0.00000000       0.00000000       0.03514207
Se       0.00000000       0.00000000       4.47151515       0.00000000       0.00000000      -0.03514207
2
Properties=species:S:1:pos:R:3:forces:R:3 energy=-1.9958527936628243 pbc="F F F"
Se       0.00000000       0.00000000       0.00000000       0.00000000       0.00000000       0.02260248
Se       0.00000000       0.00000000       4.53030303       0.00000000       0.00000000      -0.02260248
2
Properties=species:S:1:pos:R:3:forces:R:3 energy=-1.9948152455922814 pbc="F F F"
Se       0.00000000       0.00000000       0.00000000       0.00000000       0.00000000       0.01323946
Se       0.00000000       0.00000000       4.58909091       0.00000000       0.00000000      -0.01323946
2
Properties=species:S:1:pos:R:3:forces:R:3 energy=-1.9942411640289666 pbc="F F F"
Se       0.00000000       0.00000000       0.00000000       0.00000000       0.00000000       0.00667074
Se       0.00000000       0.00000000       4.64787879       0.00000000       0.00000000      -0.00667074
2
Properties=species:S:1:pos:R:3:forces:R:3 energy=-1.9939818222651218 pbc="F F F"
Se       0.00000000       0.00000000       0.00000000       0.00000000       0.00000000       0.00253778
Se       0.00000000       0.00000000       4.70666667       0.00000000       0.00000000      -0.00253778
2
Properties=species:S:1:pos:R:3:forces:R:3 energy=-1.9939023401654798 pbc="F F F"
Se       0.00000000       0.00000000       0.00000000       0.00000000       0.00000000       0.00053175
Se       0.00000000       0.00000000       4.76545455       0.00000000       0.00000000      -0.00053175
2
Properties=species:S:1:pos:R:3:forces:R:3 energy=-1.9938827091175786 pbc="F F F"
Se       0.00000000       0.00000000       0.00000000       0.00000000       0.00000000       0.00040022
Se       0.00000000       0.00000000       4.82424242       0.00000000       0.00000000      -0.00040022
2
Properties=species:S:1:pos:R:3:forces:R:3 energy=-1.9938216360313805 pbc="F F F"
Se       0.00000000       0.00000000       0.00000000       0.00000000       0.00000000       0.00192612
Se       0.00000000       0.00000000       4.88303030       0.00000000       0.00000000      -0.00192612
2
Properties=species:S:1:pos:R:3:forces:R:3 energy=-1.9936270232271767 pbc="F F F"
Se       0.00000000       0.00000000       0.00000000       0.00000000       0.00000000       0.00489506
Se       0.00000000       0.00000000       4.94181818       0.00000000       0.00000000      -0.00489506
2
Properties=species:S:1:pos:R:3:forces:R:3 energy=-1.9932231859333123 pbc="F F F"
Se       0.00000000       0.00000000       0.00000000       0.00000000       0.00000000       0.00904003
Se       0.00000000       0.00000000       5.00060606       0.00000000       0.00000000      -0.00904003
2
Properties=species:S:1:pos:R:3:forces:R:3 energy=-1.9925485377924836 pbc="F F F"
Se       0.00000000       0.00000000       0.00000000       0.00000000       0.00000000       0.01400732
Se       0.00000000       0.00000000       5.05939394       0.00000000       0.00000000      -0.01400732
2
Properties=species:S:1:pos:R:3:forces:R:3 energy=-1.991570831435823 pbc="F F F"
Se       0.00000000       0.00000000       0.00000000       0.00000000       0.00000000       0.01933246
Se       0.00000000       0.00000000       5.11818182       0.00000000       0.00000000      -0.01933246
2
Properties=species:S:1:pos:R:3:forces:R:3 energy=-1.9902805635421486 pbc="F F F"
Se       0.00000000       0.00000000       0.00000000       0.00000000       0.00000000       0.02446770
Se       0.00000000       0.00000000       5.17696970       0.00000000       0.00000000      -0.02446770
2
Properties=species:S:1:pos:R:3:forces:R:3 energy=-1.988708175821704 pbc="F F F"
Se       0.00000000       0.00000000       0.00000000       0.00000000       0.00000000       0.02883145
Se       0.00000000       0.00000000       5.23575758       0.00000000       0.00000000      -0.02883145
2
Properties=species:S:1:pos:R:3:forces:R:3 energy=-1.9869159503683789 pbc="F F F"
Se       0.00000000       0.00000000       0.00000000       0.00000000       0.00000000       0.03189605
Se       0.00000000       0.00000000       5.29454545       0.00000000       0.00000000      -0.03189605
2
Properties=species:S:1:pos:R:3:forces:R:3 energy=-1.984990918874869 pbc="F F F"
Se       0.00000000       0.00000000       0.00000000       0.00000000       0.00000000       0.03327795
Se       0.00000000       0.00000000       5.35333333       0.00000000       0.00000000      -0.03327795
2
Properties=species:S:1:pos:R:3:forces:R:3 energy=-1.983040575454006 pbc="F F F"
Se       0.00000000       0.00000000       0.00000000       0.00000000       0.00000000       0.03281377
Se       0.00000000       0.00000000       5.41212121       0.00000000       0.00000000      -0.03281377
2
Properties=species:S:1:pos:R:3:forces:R:3 energy=-1.9811671452512165 pbc="F F F"
Se       0.00000000       0.00000000       0.00000000       0.00000000       0.00000000       0.03059515
Se       0.00000000       0.00000000       5.47090909       0.00000000       0.00000000      -0.03059515
2
Properties=species:S:1:pos:R:3:forces:R:3 energy=-1.9794695159477966 pbc="F F F"
Se       0.00000000       0.00000000       0.00000000       0.00000000       0.00000000       0.02695887
Se       0.00000000       0.00000000       5.52969697       0.00000000       0.00000000      -0.02695887
2
Properties=species:S:1:pos:R:3:forces:R:3 energy=-1.9780141708891288 pbc="F F F"
Se       0.00000000       0.00000000       0.00000000       0.00000000       0.00000000       0.02241891
Se       0.00000000       0.00000000       5.58848485       0.00000000       0.00000000      -0.02241891
2
Properties=species:S:1:pos:R:3:forces:R:3 energy=-1.976839473095528 pbc="F F F"
Se       0.00000000       0.00000000       0.00000000       0.00000000       0.00000000       0.01758280
Se       0.00000000       0.00000000       5.64727273       0.00000000       0.00000000      -0.01758280
2
Properties=species:S:1:pos:R:3:forces:R:3 energy=-1.9759423336207005 pbc="F F F"
Se       0.00000000       0.00000000       0.00000000       0.00000000       0.00000000       0.01302936
Se       0.00000000       0.00000000       5.70606061       0.00000000       0.00000000      -0.01302936
2
Properties=species:S:1:pos:R:3:forces:R:3 energy=-1.9752915756634615 pbc="F F F"
Se       0.00000000       0.00000000       0.00000000       0.00000000       0.00000000       0.00922054
Se       0.00000000       0.00000000       5.76484848       0.00000000       0.00000000      -0.00922054
2
Properties=species:S:1:pos:R:3:forces:R:3 energy=-1.9748384182535939 pbc="F F F"
Se       0.00000000       0.00000000       0.00000000       0.00000000       0.00000000       0.00643377
Se       0.00000000       0.00000000       5.82363636       0.00000000       0.00000000      -0.00643377
2
Properties=species:S:1:pos:R:3:forces:R:3 energy=-1.9745150512840632 pbc="F F F"
Se       0.00000000       0.00000000       0.00000000       0.00000000       0.00000000       0.00471259
Se       0.00000000       0.00000000       5.88242424       0.00000000       0.00000000      -0.00471259
2
Properties=species:S:1:pos:R:3:forces:R:3 energy=-1.9742646837755609 pbc="F F F"
Se       0.00000000       0.00000000       0.00000000       0.00000000       0.00000000       0.00387355
Se       0.00000000       0.00000000       5.94121212       0.00000000       0.00000000      -0.00387355
2
Properties=species:S:1:pos:R:3:forces:R:3 energy=-1.9740491681233248 pbc="F F F"
Se       0.00000000       0.00000000       0.00000000       0.00000000       0.00000000       0.00354915
Se       0.00000000       0.00000000       6.00000000       0.00000000       0.00000000      -0.00354915
