2
Properties=species:S:1:pos:R:3:forces:R:3 energy=6154019.960443034 pbc="F F F"
Se       0.00000000       0.00000000       0.00000000       0.00000000       0.00000000 -59365548.00000000
Se       0.00000000       0.00000000       0.18000000       0.00000000       0.00000000 59365548.00000000
2
Properties=species:S:1:pos:R:3:forces:R:3 energy=3150876.7104430343 pbc="F F F"
Se       0.00000000       0.00000000       0.00000000       0.00000000       0.00000000 -41520204.00000000
Se       0.00000000       0.00000000       0.23878788       0.00000000       0.00000000 41520204.00000000
2
Properties=species:S:1:pos:R:3:forces:R:3 energy=1293358.8354430373 pbc="F F F"
Se       0.00000000       0.00000000       0.00000000       0.00000000       0.00000000 -22155100.00000000
Se       0.00000000       0.00000000       0.29757576       0.00000000       0.00000000 22155100.00000000
2
Properties=species:S:1:pos:R:3:forces:R:3 energy=421917.74169304053 pbc="F F F"
Se       0.00000000       0.00000000       0.00000000       0.00000000       0.00000000 -8658261.00000000
Se       0.00000000       0.00000000       0.35636364       0.00000000       0.00000000 8658261.00000000
2
Properties=species:S:1:pos:R:3:forces:R:3 energy=119713.02294305005 pbc="F F F"
Se       0.00000000       0.00000000       0.00000000       0.00000000       0.00000000 -2583968.50000000
Se       0.00000000       0.00000000       0.41515152       0.00000000       0.00000000 2583968.50000000
2
Properties=species:S:1:pos:R:3:forces:R:3 energy=20765.905755575386 pbc="F F F"
Se       0.00000000       0.00000000       0.00000000       0.00000000       0.00000000 -696653.12500000
Se       0.00000000       0.00000000       0.47393939       0.00000000       0.00000000  696653.12500000
2
Properties=species:S:1:pos:R:3:forces:R:3 energy=2865.5720153821917 pbc="F F F"
Se       0.00000000       0.00000000       0.00000000       0.00000000       0.00000000  -92990.49218750
Se       0.00000000       0.00000000       0.53272727       0.00000000       0.00000000   92990.49218750
2
Properties=species:S:1:pos:R:3:forces:R:3 energy=756.1784607675517 pbc="F F F"
Se       0.00000000       0.00000000       0.00000000       0.00000000       0.00000000  -12786.27050781
Se       0.00000000       0.00000000       0.59151515       0.00000000       0.00000000   12786.27050781
2
Properties=species:S:1:pos:R:3:forces:R:3 energy=447.9230287558548 pbc="F F F"
Se       0.00000000       0.00000000       0.00000000       0.00000000       0.00000000   -8138.11572266
Se       0.00000000       0.00000000       0.65030303       0.00000000       0.00000000    8138.11572266
2
Properties=species:S:1:pos:R:3:forces:R:3 energy=122.35007667224848 pbc="F F F"
Se       0.00000000       0.00000000       0.00000000       0.00000000       0.00000000   -1900.33874512
Se       0.00000000       0.00000000       0.70909091       0.00000000       0.00000000    1900.33874512
2
Properties=species:S:1:pos:R:3:forces:R:3 energy=27.71573094905169 pbc="F F F"
Se       0.00000000       0.00000000       0.00000000       0.00000000       0.00000000   -1468.01525879
Se       0.00000000       0.00000000       0.76787879       0.00000000       0.00000000    1468.01525879
2
Properties=species:S:1:pos:R:3:forces:R:3 energy=-66.40845228758094 pbc="F F F"
Se       0.00000000       0.00000000       0.00000000       0.00000000       0.00000000   -1665.19750977
Se       0.00000000       0.00000000       0.82666667       0.00000000       0.00000000    1665.19750977
2
Properties=species:S:1:pos:R:3:forces:R:3 energy=-149.94063247182754 pbc="F F F"
Se       0.00000000       0.00000000       0.00000000       0.00000000       0.00000000   -1045.56188965
Se       0.00000000       0.00000000       0.88545455       0.00000000       0.00000000    1045.56188965
2
Properties=species:S:1:pos:R:3:forces:R:3 energy=-169.76131034012437 pbc="F F F"
Se       0.00000000       0.00000000       0.00000000       0.00000000       0.00000000     431.32037354
Se       0.00000000       0.00000000       0.94424242       0.00000000       0.00000000    -431.32037354
2
Properties=species:S:1:pos:R:3:forces:R:3 energy=-114.96607450052566 pbc="F F F"
Se       0.00000000       0.00000000       0.00000000       0.00000000       0.00000000    1155.04016113
Se       0.00000000       0.00000000       1.00303030       0.00000000       0.00000000   -1155.04016113
2
Properties=species:S:1:pos:R:3:forces:R:3 energy=-47.26566400007465 pbc="F F F"
Se       0.00000000       0.00000000       0.00000000       0.00000000       0.00000000    1180.76660156
Se       0.00000000       0.00000000       1.06181818       0.00000000       0.00000000   -1180.76660156
2
Properties=species:S:1:pos:R:3:forces:R:3 energy=17.918908390516673 pbc="F F F"
Se       0.00000000       0.00000000       0.00000000       0.00000000       0.00000000    1124.38208008
Se       0.00000000       0.00000000       1.12060606       0.00000000       0.00000000   -1124.38208008
2
Properties=species:S:1:pos:R:3:forces:R:3 energy=61.985614904894796 pbc="F F F"
Se       0.00000000       0.00000000       0.00000000       0.00000000       0.00000000     290.12155151
Se       0.00000000       0.00000000       1.17939394       0.00000000       0.00000000    -290.12155151
2
Properties=species:S:1:pos:R:3:forces:R:3 energy=66.94688398197441 pbc="F F F"
Se       0.00000000       0.00000000       0.00000000       0.00000000       0.00000000     -81.16324615
Se       0.00000000       0.00000000       1.23818182       0.00000000       0.00000000      81.16324615
2
Properties=species:S:1:pos:R:3:forces:R:3 energy=56.58574345758278 pbc="F F F"
Se       0.00000000       0.00000000       0.00000000       0.00000000       0.00000000    -232.72625732
Se       0.00000000       0.00000000       1.29696970       0.00000000       0.00000000     232.72625732
2
Properties=species:S:1:pos:R:3:forces:R:3 energy=43.414694300567824 pbc="F F F"
Se       0.00000000       0.00000000       0.00000000       0.00000000       0.00000000    -212.28755188
Se       0.00000000       0.00000000       1.35575758       0.00000000       0.00000000     212.28755188
2
Properties=species:S:1:pos:R:3:forces:R:3 energy=32.09137148995926 pbc="F F F"
Se       0.00000000       0.00000000       0.00000000       0.00000000       0.00000000    -171.76399231
Se       0.00000000       0.00000000       1.41454545       0.00000000       0.00000000     171.76399231
2
Properties=species:S:1:pos:R:3:forces:R:3 energy=23.018901083303998 pbc="F F F"
Se       0.00000000       0.00000000       0.00000000       0.00000000       0.00000000    -138.20106506
Se       0.00000000       0.00000000       1.47333333       0.00000000       0.00000000     138.20106506
2
Properties=species:S:1:pos:R:3:forces:R:3 energy=15.695865286843583 pbc="F F F"
Se       0.00000000       0.00000000       0.00000000       0.00000000       0.00000000    -112.24308014
Se       0.00000000       0.00000000       1.53212121       0.00000000       0.00000000     112.24308014
2
Properties=species:S:1:pos:R:3:forces:R:3 energy=9.829898443381175 pbc="F F F"
Se       0.00000000       0.00000000       0.00000000       0.00000000       0.00000000     -87.38961792
Se       0.00000000       0.00000000       1.59090909       0.00000000       0.00000000      87.38961792
2
Properties=species:S:1:pos:R:3:forces:R:3 energy=5.311000376556845 pbc="F F F"
Se       0.00000000       0.00000000       0.00000000       0.00000000       0.00000000     -67.05589294
Se       0.00000000       0.00000000       1.64969697       0.00000000       0.00000000      67.05589294
2
Properties=species:S:1:pos:R:3:forces:R:3 energy=1.9010810495750177 pbc="F F F"
Se       0.00000000       0.00000000       0.00000000       0.00000000       0.00000000     -49.26828003
Se       0.00000000       0.00000000       1.70848485       0.00000000       0.00000000      49.26828003
2
Properties=species:S:1:pos:R:3:forces:R:3 energy=-0.5608873841968948 pbc="F F F"
Se       0.00000000       0.00000000       0.00000000       0.00000000       0.00000000     -35.62697983
Se       0.00000000       0.00000000       1.76727273       0.00000000       0.00000000      35.62697983
2
Properties=species:S:1:pos:R:3:forces:R:3 energy=-2.381212131375369 pbc="F F F"
Se       0.00000000       0.00000000       0.00000000       0.00000000       0.00000000     -26.35912895
Se       0.00000000       0.00000000       1.82606061       0.00000000       0.00000000      26.35912895
2
Properties=species:S:1:pos:R:3:forces:R:3 energy=-3.6533692261661943 pbc="F F F"
Se       0.00000000       0.00000000       0.00000000       0.00000000       0.00000000     -17.34039879
Se       0.00000000       0.00000000       1.88484848       0.00000000       0.00000000      17.34039879
2
Properties=species:S:1:pos:R:3:forces:R:3 energy=-4.480531653720912 pbc="F F F"
Se       0.00000000       0.00000000       0.00000000       0.00000000       0.00000000     -11.17010403
Se       0.00000000       0.00000000       1.94363636       0.00000000       0.00000000      11.17010403
2
Properties=species:S:1:pos:R:3:forces:R:3 energy=-5.002018057783936 pbc="F F F"
Se       0.00000000       0.00000000       0.00000000       0.00000000       0.00000000      -6.80833006
Se       0.00000000       0.00000000       2.00242424       0.00000000       0.00000000       6.80833006
2
Properties=species:S:1:pos:R:3:forces:R:3 energy=-5.303720629481621 pbc="F F F"
Se       0.00000000       0.00000000       0.00000000       0.00000000       0.00000000      -3.65765858
Se       0.00000000       0.00000000       2.06121212       0.00000000       0.00000000       3.65765858
2
Properties=species:S:1:pos:R:3:forces:R:3 energy=-5.45536912961698 pbc="F F F"
Se       0.00000000       0.00000000       0.00000000       0.00000000       0.00000000      -1.65623546
Se       0.00000000       0.00000000       2.12000000       0.00000000       0.00000000       1.65623546
2
Properties=species:S:1:pos:R:3:forces:R:3 energy=-5.5136493941808755 pbc="F F F"
Se       0.00000000       0.00000000       0.00000000       0.00000000       0.00000000      -0.44736499
Se       0.00000000       0.00000000       2.17878788       0.00000000       0.00000000       0.44736499
2
Properties=species:S:1:pos:R:3:forces:R:3 energy=-5.516903582442054 pbc="F F F"
Se       0.00000000       0.00000000       0.00000000       0.00000000       0.00000000       0.30728325
Se       0.00000000       0.00000000       2.23757576       0.00000000       0.00000000      -0.30728325
2
Properties=species:S:1:pos:R:3:forces:R:3 energy=-5.4798361866009495 pbc="F F F"
Se       0.00000000       0.00000000       0.00000000       0.00000000       0.00000000       0.93910187
Se       0.00000000       0.00000000       2.29636364       0.00000000       0.00000000      -0.93910187
2
Properties=species:S:1:pos:R:3:forces:R:3 energy=-5.408121093826706 pbc="F F F"
Se       0.00000000       0.00000000       0.00000000       0.00000000       0.00000000       1.48783898
Se       0.00000000       0.00000000       2.35515152       0.00000000       0.00000000      -1.48783898
2
Properties=species:S:1:pos:R:3:forces:R:3 energy=-5.304110969796431 pbc="F F F"
Se       0.00000000       0.00000000       0.00000000       0.00000000       0.00000000       2.08004355
Se       0.00000000       0.00000000       2.41393939       0.00000000       0.00000000      -2.08004355
2
Properties=species:S:1:pos:R:3:forces:R:3 energy=-5.159909793803393 pbc="F F F"
Se       0.00000000       0.00000000       0.00000000       0.00000000       0.00000000       2.84331560
Se       0.00000000       0.00000000       2.47272727       0.00000000       0.00000000      -2.84331560
2
Properties=species:S:1:pos:R:3:forces:R:3 energy=-4.970445957830863 pbc="F F F"
Se       0.00000000       0.00000000       0.00000000       0.00000000       0.00000000       3.57465458
Se       0.00000000       0.00000000       2.53151515       0.00000000       0.00000000      -3.57465458
2
Properties=species:S:1:pos:R:3:forces:R:3 energy=-4.744465584011728 pbc="F F F"
Se       0.00000000       0.00000000       0.00000000       0.00000000       0.00000000       4.06644821
Se       0.00000000       0.00000000       2.59030303       0.00000000       0.00000000      -4.06644821
2
Properties=species:S:1:pos:R:3:forces:R:3 energy=-4.497642158000359 pbc="F F F"
Se       0.00000000       0.00000000       0.00000000       0.00000000       0.00000000       4.28851843
Se       0.00000000       0.00000000       2.64909091       0.00000000       0.00000000      -4.28851843
2
Properties=species:S:1:pos:R:3:forces:R:3 energy=-4.244783420904999 pbc="F F F"
Se       0.00000000       0.00000000       0.00000000       0.00000000       0.00000000       4.27930355
Se       0.00000000       0.00000000       2.70787879       0.00000000       0.00000000      -4.27930355
2
Properties=species:S:1:pos:R:3:forces:R:3 energy=-3.997901525281297 pbc="F F F"
Se       0.00000000       0.00000000       0.00000000       0.00000000       0.00000000       4.09724855
Se       0.00000000       0.00000000       2.76666667       0.00000000       0.00000000      -4.09724855
2
Properties=species:S:1:pos:R:3:forces:R:3 energy=-3.76500029251918 pbc="F F F"
Se       0.00000000       0.00000000       0.00000000       0.00000000       0.00000000       3.81427336
Se       0.00000000       0.00000000       2.82545455       0.00000000       0.00000000      -3.81427336
2
Properties=species:S:1:pos:R:3:forces:R:3 energy=-3.5504727666560765 pbc="F F F"
Se       0.00000000       0.00000000       0.00000000       0.00000000       0.00000000       3.47778153
Se       0.00000000       0.00000000       2.88424242       0.00000000       0.00000000      -3.47778153
2
Properties=species:S:1:pos:R:3:forces:R:3 energy=-3.3565924488973624 pbc="F F F"
Se       0.00000000       0.00000000       0.00000000       0.00000000       0.00000000       3.11607313
Se       0.00000000       0.00000000       2.94303030       0.00000000       0.00000000      -3.11607313
2
Properties=species:S:1:pos:R:3:forces:R:3 energy=-3.1840567272499674 pbc="F F F"
Se       0.00000000       0.00000000       0.00000000       0.00000000       0.00000000       2.75643587
Se       0.00000000       0.00000000       3.00181818       0.00000000       0.00000000      -2.75643587
2
Properties=species:S:1:pos:R:3:forces:R:3 energy=-3.0319641167154985 pbc="F F F"
Se       0.00000000       0.00000000       0.00000000       0.00000000       0.00000000       2.42368746
Se       0.00000000       0.00000000       3.06060606       0.00000000       0.00000000      -2.42368746
2
Properties=species:S:1:pos:R:3:forces:R:3 energy=-2.8983661294406935 pbc="F F F"
Se       0.00000000       0.00000000       0.00000000       0.00000000       0.00000000       2.12766504
Se       0.00000000       0.00000000       3.11939394       0.00000000       0.00000000      -2.12766504
2
Properties=species:S:1:pos:R:3:forces:R:3 energy=-2.7810591411822525 pbc="F F F"
Se       0.00000000       0.00000000       0.00000000       0.00000000       0.00000000       1.86964679
Se       0.00000000       0.00000000       3.17818182       0.00000000       0.00000000      -1.86964679
2
Properties=species:S:1:pos:R:3:forces:R:3 energy=-2.677777814466835 pbc="F F F"
Se       0.00000000       0.00000000       0.00000000       0.00000000       0.00000000       1.65022719
Se       0.00000000       0.00000000       3.23696970       0.00000000       0.00000000      -1.65022719
2
Properties=species:S:1:pos:R:3:forces:R:3 energy=-2.5863701453454553 pbc="F F F"
Se       0.00000000       0.00000000       0.00000000       0.00000000       0.00000000       1.46440220
Se       0.00000000       0.00000000       3.29575758       0.00000000       0.00000000      -1.46440220
2
Properties=species:S:1:pos:R:3:forces:R:3 energy=-2.5051386458839 pbc="F F F"
Se       0.00000000       0.00000000       0.00000000       0.00000000       0.00000000       1.30226707
Se       0.00000000       0.00000000       3.35454545       0.00000000       0.00000000      -1.30226707
2
Properties=species:S:1:pos:R:3:forces:R:3 energy=-2.4329687860845186 pbc="F F F"
Se       0.00000000       0.00000000       0.00000000       0.00000000       0.00000000       1.15495574
Se       0.00000000       0.00000000       3.41333333       0.00000000       0.00000000      -1.15495574
2
Properties=species:S:1:pos:R:3:forces:R:3 energy=-2.3691344236549083 pbc="F F F"
Se       0.00000000       0.00000000       0.00000000       0.00000000       0.00000000       1.01841676
Se       0.00000000       0.00000000       3.47212121       0.00000000       0.00000000      -1.01841676
2
Properties=species:S:1:pos:R:3:forces:R:3 energy=-2.3130075353874657 pbc="F F F"
Se       0.00000000       0.00000000       0.00000000       0.00000000       0.00000000       0.89306718
Se       0.00000000       0.00000000       3.53090909       0.00000000       0.00000000      -0.89306718
2
Properties=species:S:1:pos:R:3:forces:R:3 energy=-2.263880130320171 pbc="F F F"
Se       0.00000000       0.00000000       0.00000000       0.00000000       0.00000000       0.78049016
Se       0.00000000       0.00000000       3.58969697       0.00000000       0.00000000      -0.78049016
2
Properties=species:S:1:pos:R:3:forces:R:3 energy=-2.2209865977265792 pbc="F F F"
Se       0.00000000       0.00000000       0.00000000       0.00000000       0.00000000       0.68080616
Se       0.00000000       0.00000000       3.64848485       0.00000000       0.00000000      -0.68080616
2
Properties=species:S:1:pos:R:3:forces:R:3 energy=-2.1836090976312494 pbc="F F F"
Se       0.00000000       0.00000000       0.00000000       0.00000000       0.00000000       0.59260565
Se       0.00000000       0.00000000       3.70727273       0.00000000       0.00000000      -0.59260565
2
Properties=species:S:1:pos:R:3:forces:R:3 energy=-2.1511223328174625 pbc="F F F"
Se       0.00000000       0.00000000       0.00000000       0.00000000       0.00000000       0.51411474
Se       0.00000000       0.00000000       3.76606061       0.00000000       0.00000000      -0.51411474
2
Properties=species:S:1:pos:R:3:forces:R:3 energy=-2.1229983076953354 pbc="F F F"
Se       0.00000000       0.00000000       0.00000000       0.00000000       0.00000000       0.44397914
Se       0.00000000       0.00000000       3.82484848       0.00000000       0.00000000      -0.44397914
2
Properties=species:S:1:pos:R:3:forces:R:3 energy=-2.098774365957023 pbc="F F F"
Se       0.00000000       0.00000000       0.00000000       0.00000000       0.00000000       0.38130307
Se       0.00000000       0.00000000       3.88363636       0.00000000       0.00000000      -0.38130307
2
Properties=species:S:1:pos:R:3:forces:R:3 energy=-2.0780319959137614 pbc="F F F"
Se       0.00000000       0.00000000       0.00000000       0.00000000       0.00000000       0.32537895
Se       0.00000000       0.00000000       3.94242424       0.00000000       0.00000000      -0.32537895
2
Properties=species:S:1:pos:R:3:forces:R:3 energy=-2.0604002111215753 pbc="F F F"
Se       0.00000000       0.00000000       0.00000000       0.00000000       0.00000000       0.27547130
Se       0.00000000       0.00000000       4.00121212       0.00000000       0.00000000      -0.27547130
2
Properties=species:S:1:pos:R:3:forces:R:3 energy=-2.045542518970809 pbc="F F F"
Se       0.00000000       0.00000000       0.00000000       0.00000000       0.00000000       0.23082039
Se       0.00000000       0.00000000       4.06000000       0.00000000       0.00000000      -0.23082039
2
Properties=species:S:1:pos:R:3:forces:R:3 energy=-2.0331715711734124 pbc="F F F"
Se       0.00000000       0.00000000       0.00000000       0.00000000       0.00000000       0.19076575
Se       0.00000000       0.00000000       4.11878788       0.00000000       0.00000000      -0.19076575
2
Properties=species:S:1:pos:R:3:forces:R:3 energy=-2.0230305433551043 pbc="F F F"
Se       0.00000000       0.00000000       0.00000000       0.00000000       0.00000000       0.15487145
Se       0.00000000       0.00000000       4.17757576       0.00000000       0.00000000      -0.15487145
2
Properties=species:S:1:pos:R:3:forces:R:3 energy=-2.014884805492223 pbc="F F F"
Se       0.00000000       0.00000000       0.00000000       0.00000000       0.00000000       0.12295914
Se       0.00000000       0.00000000       4.23636364       0.00000000       0.00000000      -0.12295914
2
Properties=species:S:1:pos:R:3:forces:R:3 energy=-2.008495694284111 pbc="F F F"
Se       0.00000000       0.00000000       0.00000000       0.00000000       0.00000000       0.09502984
Se       0.00000000       0.00000000       4.29515152       0.00000000       0.00000000      -0.09502984
2
Properties=species:S:1:pos:R:3:forces:R:3 energy=-2.0036318780493625 pbc="F F F"
Se       0.00000000       0.00000000       0.00000000       0.00000000       0.00000000       0.07112877
Se       0.00000000       0.00000000       4.35393939       0.00000000       0.00000000      -0.07112877
2
Properties=species:S:1:pos:R:3:forces:R:3 energy=-2.0000530096299984 pbc="F F F"
Se       0.00000000       0.00000000       0.00000000       0.00000000       0.00000000       0.05122172
Se       0.00000000       0.00000000       4.41272727       0.00000000       0.00000000      -0.05122172
2
Properties=species:S:1:pos:R:3:forces:R:3 energy=-1.9975335476585376 pbc="F F F"
Se       0.00000000       0.00000000       0.00000000       0.00000000       0.00000000       0.03514215
Se       0.00000000       0.00000000       4.47151515       0.00000000       0.00000000      -0.03514215
2
Properties=species:S:1:pos:R:3:forces:R:3 energy=-1.9958527968306463 pbc="F F F"
Se       0.00000000       0.00000000       0.00000000       0.00000000       0.00000000       0.02260251
Se       0.00000000       0.00000000       4.53030303       0.00000000       0.00000000      -0.02260251
2
Properties=species:S:1:pos:R:3:forces:R:3 energy=-1.9948142998375205 pbc="F F F"
Se       0.00000000       0.00000000       0.00000000       0.00000000       0.00000000       0.01323952
Se       0.00000000       0.00000000       4.58909091       0.00000000       0.00000000      -0.01323952
2
Properties=species:S:1:pos:R:3:forces:R:3 energy=-1.9942411640289666 pbc="F F F"
Se       0.00000000       0.00000000       0.00000000       0.00000000       0.00000000       0.00667077
Se       0.00000000       0.00000000       4.64787879       0.00000000       0.00000000      -0.00667077
2
Properties=species:S:1:pos:R:3:forces:R:3 energy=-1.9939818222651218 pbc="F F F"
Se       0.00000000       0.00000000       0.00000000       0.00000000       0.00000000       0.00253784
Se       0.00000000       0.00000000       4.70666667       0.00000000       0.00000000      -0.00253784
2
Properties=species:S:1:pos:R:3:forces:R:3 energy=-1.9939032930478406 pbc="F F F"
Se       0.00000000       0.00000000       0.00000000       0.00000000       0.00000000       0.00053181
Se       0.00000000       0.00000000       4.76545455       0.00000000       0.00000000      -0.00053181
2
Properties=species:S:1:pos:R:3:forces:R:3 energy=-1.9938827091175786 pbc="F F F"
Se       0.00000000       0.00000000       0.00000000       0.00000000       0.00000000       0.00040005
Se       0.00000000       0.00000000       4.82424242       0.00000000       0.00000000      -0.00040005
2
Properties=species:S:1:pos:R:3:forces:R:3 energy=-1.993822589705697 pbc="F F F"
Se       0.00000000       0.00000000       0.00000000       0.00000000       0.00000000       0.00192617
Se       0.00000000       0.00000000       4.88303030       0.00000000       0.00000000      -0.00192617
2
Properties=species:S:1:pos:R:3:forces:R:3 energy=-1.9936279761095377 pbc="F F F"
Se       0.00000000       0.00000000       0.00000000       0.00000000       0.00000000       0.00489515
Se       0.00000000       0.00000000       4.94181818       0.00000000       0.00000000      -0.00489515
2
Properties=species:S:1:pos:R:3:forces:R:3 energy=-1.9932231859333123 pbc="F F F"
Se       0.00000000       0.00000000       0.00000000       0.00000000       0.00000000       0.00904061
Se       0.00000000       0.00000000       5.00060606       0.00000000       0.00000000      -0.00904061
2
Properties=species:S:1:pos:R:3:forces:R:3 energy=-1.9925494906748444 pbc="F F F"
Se       0.00000000       0.00000000       0.00000000       0.00000000       0.00000000       0.01400716
Se       0.00000000       0.00000000       5.05939394       0.00000000       0.00000000      -0.01400716
2
Properties=species:S:1:pos:R:3:forces:R:3 energy=-1.9915698777615065 pbc="F F F"
Se       0.00000000       0.00000000       0.00000000       0.00000000       0.00000000       0.01933304
Se       0.00000000       0.00000000       5.11818182       0.00000000       0.00000000      -0.01933304
2
Properties=species:S:1:pos:R:3:forces:R:3 energy=-1.9902796130356544 pbc="F F F"
Se       0.00000000       0.00000000       0.00000000       0.00000000       0.00000000       0.02446759
Se       0.00000000       0.00000000       5.17696970       0.00000000       0.00000000      -0.02446759
2
Properties=species:S:1:pos:R:3:forces:R:3 energy=-1.9887086526588622 pbc="F F F"
Se       0.00000000       0.00000000       0.00000000       0.00000000       0.00000000       0.02883183
Se       0.00000000       0.00000000       5.23575758       0.00000000       0.00000000      -0.02883183
2
Properties=species:S:1:pos:R:3:forces:R:3 energy=-1.9869149966940625 pbc="F F F"
Se       0.00000000       0.00000000       0.00000000       0.00000000       0.00000000       0.03189584
Se       0.00000000       0.00000000       5.29454545       0.00000000       0.00000000      -0.03189584
2
Properties=species:S:1:pos:R:3:forces:R:3 energy=-1.9849904452055327 pbc="F F F"
Se       0.00000000       0.00000000       0.00000000       0.00000000       0.00000000       0.03327815
Se       0.00000000       0.00000000       5.35333333       0.00000000       0.00000000      -0.03327815
2
Properties=species:S:1:pos:R:3:forces:R:3 energy=-1.983040575454006 pbc="F F F"
Se       0.00000000       0.00000000       0.00000000       0.00000000       0.00000000       0.03281305
Se       0.00000000       0.00000000       5.41212121       0.00000000       0.00000000      -0.03281305
2
Properties=species:S:1:pos:R:3:forces:R:3 energy=-1.9811671452512165 pbc="F F F"
Se       0.00000000       0.00000000       0.00000000       0.00000000       0.00000000       0.03059511
Se       0.00000000       0.00000000       5.47090909       0.00000000       0.00000000      -0.03059511
2
Properties=species:S:1:pos:R:3:forces:R:3 energy=-1.9794699955567991 pbc="F F F"
Se       0.00000000       0.00000000       0.00000000       0.00000000       0.00000000       0.02695800
Se       0.00000000       0.00000000       5.52969697       0.00000000       0.00000000      -0.02695800
2
Properties=species:S:1:pos:R:3:forces:R:3 energy=-1.9780136940519706 pbc="F F F"
Se       0.00000000       0.00000000       0.00000000       0.00000000       0.00000000       0.02241951
Se       0.00000000       0.00000000       5.58848485       0.00000000       0.00000000      -0.02241951
2
Properties=species:S:1:pos:R:3:forces:R:3 energy=-1.976839473095528 pbc="F F F"
Se       0.00000000       0.00000000       0.00000000       0.00000000       0.00000000       0.01758164
Se       0.00000000       0.00000000       5.64727273       0.00000000       0.00000000      -0.01758164
2
Properties=species:S:1:pos:R:3:forces:R:3 energy=-1.9759418587634312 pbc="F F F"
Se       0.00000000       0.00000000       0.00000000       0.00000000       0.00000000       0.01302982
Se       0.00000000       0.00000000       5.70606061       0.00000000       0.00000000      -0.01302982
2
Properties=species:S:1:pos:R:3:forces:R:3 energy=-1.9752920525006197 pbc="F F F"
Se       0.00000000       0.00000000       0.00000000       0.00000000       0.00000000       0.00922065
Se       0.00000000       0.00000000       5.76484848       0.00000000       0.00000000      -0.00922065
2
Properties=species:S:1:pos:R:3:forces:R:3 energy=-1.9748393719279103 pbc="F F F"
Se       0.00000000       0.00000000       0.00000000       0.00000000       0.00000000       0.00643422
Se       0.00000000       0.00000000       5.82363636       0.00000000       0.00000000      -0.00643422
2
Properties=species:S:1:pos:R:3:forces:R:3 energy=-1.9745160057503353 pbc="F F F"
Se       0.00000000       0.00000000       0.00000000       0.00000000       0.00000000       0.00471227
Se       0.00000000       0.00000000       5.88242424       0.00000000       0.00000000      -0.00471227
2
Properties=species:S:1:pos:R:3:forces:R:3 energy=-1.9742661146830132 pbc="F F F"
Se       0.00000000       0.00000000       0.00000000       0.00000000       0.00000000       0.00387355
Se       0.00000000       0.00000000       5.94121212       0.00000000       0.00000000      -0.00387355
2
Properties=species:S:1:pos:R:3:forces:R:3 energy=-1.9740496453564607 pbc="F F F"
Se       0.00000000       0.00000000       0.00000000       0.00000000       0.00000000       0.00354915
Se       0.00000000       0.00000000       6.00000000       0.00000000       0.00000000      -0.00354915
