2
Properties=species:S:1:pos:R:3:forces:R:3 energy=-4194168.549690243 pbc="F F F"
Si       0.00000000       0.00000000       0.00000000       0.00000000       0.00000000 20704324.00000000
Si       0.00000000       0.00000000       0.10000000       0.00000000       0.00000000 -20704324.00000000
2
Properties=species:S:1:pos:R:3:forces:R:3 energy=-2859158.799690243 pbc="F F F"
Si       0.00000000       0.00000000       0.00000000       0.00000000       0.00000000 22683956.00000000
Si       0.00000000       0.00000000       0.15959596       0.00000000       0.00000000 -22683956.00000000
2
Properties=species:S:1:pos:R:3:forces:R:3 energy=-1626019.9246902429 pbc="F F F"
Si       0.00000000       0.00000000       0.00000000       0.00000000       0.00000000 17932804.00000000
Si       0.00000000       0.00000000       0.21919192       0.00000000       0.00000000 -17932804.00000000
2
Properties=species:S:1:pos:R:3:forces:R:3 energy=-765230.2996902396 pbc="F F F"
Si       0.00000000       0.00000000       0.00000000       0.00000000       0.00000000 10943932.00000000
Si       0.00000000       0.00000000       0.27878788       0.00000000       0.00000000 -10943932.00000000
2
Properties=species:S:1:pos:R:3:forces:R:3 energy=-295130.14344023645 pbc="F F F"
Si       0.00000000       0.00000000       0.00000000       0.00000000       0.00000000 5216016.00000000
Si       0.00000000       0.00000000       0.33838384       0.00000000       0.00000000 -5216016.00000000
2
Properties=species:S:1:pos:R:3:forces:R:3 energy=-92128.5340652238 pbc="F F F"
Si       0.00000000       0.00000000       0.00000000       0.00000000       0.00000000 1942995.12500000
Si       0.00000000       0.00000000       0.39797980       0.00000000       0.00000000 -1942995.12500000
2
Properties=species:S:1:pos:R:3:forces:R:3 energy=-25455.83484645162 pbc="F F F"
Si       0.00000000       0.00000000       0.00000000       0.00000000       0.00000000  553418.43750000
Si       0.00000000       0.00000000       0.45757576       0.00000000       0.00000000 -553418.43750000
2
Properties=species:S:1:pos:R:3:forces:R:3 energy=-7186.00330343852 pbc="F F F"
Si       0.00000000       0.00000000       0.00000000       0.00000000       0.00000000  145030.71875000
Si       0.00000000       0.00000000       0.51717172       0.00000000       0.00000000 -145030.71875000
2
Properties=species:S:1:pos:R:3:forces:R:3 energy=-2410.948859999949 pbc="F F F"
Si       0.00000000       0.00000000       0.00000000       0.00000000       0.00000000   39350.18750000
Si       0.00000000       0.00000000       0.57676768       0.00000000       0.00000000  -39350.18750000
2
Properties=species:S:1:pos:R:3:forces:R:3 energy=-491.75119751338497 pbc="F F F"
Si       0.00000000       0.00000000       0.00000000       0.00000000       0.00000000   28388.63085938
Si       0.00000000       0.00000000       0.63636364       0.00000000       0.00000000  -28388.63085938
2
Properties=species:S:1:pos:R:3:forces:R:3 energy=267.03435568054255 pbc="F F F"
Si       0.00000000       0.00000000       0.00000000       0.00000000       0.00000000     -53.09601212
Si       0.00000000       0.00000000       0.69595960       0.00000000       0.00000000      53.09601212
2
Properties=species:S:1:pos:R:3:forces:R:3 energy=164.49378288671105 pbc="F F F"
Si       0.00000000       0.00000000       0.00000000       0.00000000       0.00000000   -1776.52612305
Si       0.00000000       0.00000000       0.75555556       0.00000000       0.00000000    1776.52612305
2
Properties=species:S:1:pos:R:3:forces:R:3 energy=88.89621105423116 pbc="F F F"
Si       0.00000000       0.00000000       0.00000000       0.00000000       0.00000000    -776.10986328
Si       0.00000000       0.00000000       0.81515152       0.00000000       0.00000000     776.10986328
2
Properties=species:S:1:pos:R:3:forces:R:3 energy=62.723528048003004 pbc="F F F"
Si       0.00000000       0.00000000       0.00000000       0.00000000       0.00000000    -169.87351990
Si       0.00000000       0.00000000       0.87474747       0.00000000       0.00000000     169.87351990
2
Properties=species:S:1:pos:R:3:forces:R:3 energy=61.15931243843309 pbc="F F F"
Si       0.00000000       0.00000000       0.00000000       0.00000000       0.00000000      36.81158066
Si       0.00000000       0.00000000       0.93434343       0.00000000       0.00000000     -36.81158066
2
Properties=species:S:1:pos:R:3:forces:R:3 energy=58.42273393091966 pbc="F F F"
Si       0.00000000       0.00000000       0.00000000       0.00000000       0.00000000    -141.74816895
Si       0.00000000       0.00000000       0.99393939       0.00000000       0.00000000     141.74816895
2
Properties=species:S:1:pos:R:3:forces:R:3 energy=47.2272135169277 pbc="F F F"
Si       0.00000000       0.00000000       0.00000000       0.00000000       0.00000000    -206.77709961
Si       0.00000000       0.00000000       1.05353535       0.00000000       0.00000000     206.77709961
2
Properties=species:S:1:pos:R:3:forces:R:3 energy=36.742650309986495 pbc="F F F"
Si       0.00000000       0.00000000       0.00000000       0.00000000       0.00000000    -144.05508423
Si       0.00000000       0.00000000       1.11313131       0.00000000       0.00000000     144.05508423
2
Properties=species:S:1:pos:R:3:forces:R:3 energy=29.494496138146864 pbc="F F F"
Si       0.00000000       0.00000000       0.00000000       0.00000000       0.00000000    -108.19095612
Si       0.00000000       0.00000000       1.17272727       0.00000000       0.00000000     108.19095612
2
Properties=species:S:1:pos:R:3:forces:R:3 energy=23.520673093827906 pbc="F F F"
Si       0.00000000       0.00000000       0.00000000       0.00000000       0.00000000     -96.77706909
Si       0.00000000       0.00000000       1.23232323       0.00000000       0.00000000      96.77706909
2
Properties=species:S:1:pos:R:3:forces:R:3 energy=17.813712243705826 pbc="F F F"
Si       0.00000000       0.00000000       0.00000000       0.00000000       0.00000000     -94.84531403
Si       0.00000000       0.00000000       1.29191919       0.00000000       0.00000000      94.84531403
2
Properties=species:S:1:pos:R:3:forces:R:3 energy=12.811316983339255 pbc="F F F"
Si       0.00000000       0.00000000       0.00000000       0.00000000       0.00000000     -73.24531555
Si       0.00000000       0.00000000       1.35151515       0.00000000       0.00000000      73.24531555
2
Properties=species:S:1:pos:R:3:forces:R:3 energy=8.876265348974814 pbc="F F F"
Si       0.00000000       0.00000000       0.00000000       0.00000000       0.00000000     -58.52611923
Si       0.00000000       0.00000000       1.41111111       0.00000000       0.00000000      58.52611923
2
Properties=species:S:1:pos:R:3:forces:R:3 energy=5.7768958988387595 pbc="F F F"
Si       0.00000000       0.00000000       0.00000000       0.00000000       0.00000000     -46.65916443
Si       0.00000000       0.00000000       1.47070707       0.00000000       0.00000000      46.65916443
2
Properties=species:S:1:pos:R:3:forces:R:3 energy=3.2350165246063685 pbc="F F F"
Si       0.00000000       0.00000000       0.00000000       0.00000000       0.00000000     -38.86907959
Si       0.00000000       0.00000000       1.53030303       0.00000000       0.00000000      38.86907959
2
Properties=species:S:1:pos:R:3:forces:R:3 energy=1.1552927232474952 pbc="F F F"
Si       0.00000000       0.00000000       0.00000000       0.00000000       0.00000000     -30.87249756
Si       0.00000000       0.00000000       1.58989899       0.00000000       0.00000000      30.87249756
2
Properties=species:S:1:pos:R:3:forces:R:3 energy=-0.4730476971287971 pbc="F F F"
Si       0.00000000       0.00000000       0.00000000       0.00000000       0.00000000     -24.11545753
Si       0.00000000       0.00000000       1.64949495       0.00000000       0.00000000      24.11545753
2
Properties=species:S:1:pos:R:3:forces:R:3 energy=-1.759001470103537 pbc="F F F"
Si       0.00000000       0.00000000       0.00000000       0.00000000       0.00000000     -19.27124786
Si       0.00000000       0.00000000       1.70909091       0.00000000       0.00000000      19.27124786
2
Properties=species:S:1:pos:R:3:forces:R:3 energy=-2.801001437673233 pbc="F F F"
Si       0.00000000       0.00000000       0.00000000       0.00000000       0.00000000     -16.03786278
Si       0.00000000       0.00000000       1.76868687       0.00000000       0.00000000      16.03786278
2
Properties=species:S:1:pos:R:3:forces:R:3 energy=-3.6682121390500204 pbc="F F F"
Si       0.00000000       0.00000000       0.00000000       0.00000000       0.00000000     -12.74206257
Si       0.00000000       0.00000000       1.82828283       0.00000000       0.00000000      12.74206257
2
Properties=species:S:1:pos:R:3:forces:R:3 energy=-4.313759803668592 pbc="F F F"
Si       0.00000000       0.00000000       0.00000000       0.00000000       0.00000000      -9.10567665
Si       0.00000000       0.00000000       1.88787879       0.00000000       0.00000000       9.10567665
2
Properties=species:S:1:pos:R:3:forces:R:3 energy=-4.771461070217351 pbc="F F F"
Si       0.00000000       0.00000000       0.00000000       0.00000000       0.00000000      -6.33191490
Si       0.00000000       0.00000000       1.94747475       0.00000000       0.00000000       6.33191490
2
Properties=species:S:1:pos:R:3:forces:R:3 energy=-5.0824140170068155 pbc="F F F"
Si       0.00000000       0.00000000       0.00000000       0.00000000       0.00000000      -4.22176313
Si       0.00000000       0.00000000       2.00707071       0.00000000       0.00000000       4.22176313
2
Properties=species:S:1:pos:R:3:forces:R:3 energy=-5.2824374822749816 pbc="F F F"
Si       0.00000000       0.00000000       0.00000000       0.00000000       0.00000000      -2.54898405
Si       0.00000000       0.00000000       2.06666667       0.00000000       0.00000000       2.54898405
2
Properties=species:S:1:pos:R:3:forces:R:3 energy=-5.393809418430339 pbc="F F F"
Si       0.00000000       0.00000000       0.00000000       0.00000000       0.00000000      -1.23307085
Si       0.00000000       0.00000000       2.12626263       0.00000000       0.00000000       1.23307085
2
Properties=species:S:1:pos:R:3:forces:R:3 energy=-5.437954920449959 pbc="F F F"
Si       0.00000000       0.00000000       0.00000000       0.00000000       0.00000000      -0.35052568
Si       0.00000000       0.00000000       2.18585859       0.00000000       0.00000000       0.35052568
2
Properties=species:S:1:pos:R:3:forces:R:3 energy=-5.442224030427878 pbc="F F F"
Si       0.00000000       0.00000000       0.00000000       0.00000000       0.00000000       0.19971605
Si       0.00000000       0.00000000       2.24545455       0.00000000       0.00000000      -0.19971605
2
Properties=species:S:1:pos:R:3:forces:R:3 energy=-5.414796193916633 pbc="F F F"
Si       0.00000000       0.00000000       0.00000000       0.00000000       0.00000000       0.70854390
Si       0.00000000       0.00000000       2.30505051       0.00000000       0.00000000      -0.70854390
2
Properties=species:S:1:pos:R:3:forces:R:3 energy=-5.360905631091651 pbc="F F F"
Si       0.00000000       0.00000000       0.00000000       0.00000000       0.00000000       1.06737375
Si       0.00000000       0.00000000       2.36464646       0.00000000       0.00000000      -1.06737375
2
Properties=species:S:1:pos:R:3:forces:R:3 energy=-5.288755121552739 pbc="F F F"
Si       0.00000000       0.00000000       0.00000000       0.00000000       0.00000000       1.36663568
Si       0.00000000       0.00000000       2.42424242       0.00000000       0.00000000      -1.36663568
2
Properties=species:S:1:pos:R:3:forces:R:3 energy=-5.196823637578978 pbc="F F F"
Si       0.00000000       0.00000000       0.00000000       0.00000000       0.00000000       1.71705091
Si       0.00000000       0.00000000       2.48383838       0.00000000       0.00000000      -1.71705091
2
Properties=species:S:1:pos:R:3:forces:R:3 energy=-5.085088734903075 pbc="F F F"
Si       0.00000000       0.00000000       0.00000000       0.00000000       0.00000000       2.02100992
Si       0.00000000       0.00000000       2.54343434       0.00000000       0.00000000      -2.02100992
2
Properties=species:S:1:pos:R:3:forces:R:3 energy=-4.957436703731048 pbc="F F F"
Si       0.00000000       0.00000000       0.00000000       0.00000000       0.00000000       2.25158334
Si       0.00000000       0.00000000       2.60303030       0.00000000       0.00000000      -2.25158334
2
Properties=species:S:1:pos:R:3:forces:R:3 energy=-4.817832479159462 pbc="F F F"
Si       0.00000000       0.00000000       0.00000000       0.00000000       0.00000000       2.42427230
Si       0.00000000       0.00000000       2.66262626       0.00000000       0.00000000      -2.42427230
2
Properties=species:S:1:pos:R:3:forces:R:3 energy=-4.66984667678191 pbc="F F F"
Si       0.00000000       0.00000000       0.00000000       0.00000000       0.00000000       2.52846527
Si       0.00000000       0.00000000       2.72222222       0.00000000       0.00000000      -2.52846527
2
Properties=species:S:1:pos:R:3:forces:R:3 energy=-4.518090539348041 pbc="F F F"
Si       0.00000000       0.00000000       0.00000000       0.00000000       0.00000000       2.55192733
Si       0.00000000       0.00000000       2.78181818       0.00000000       0.00000000      -2.55192733
2
Properties=species:S:1:pos:R:3:forces:R:3 energy=-4.366944156124611 pbc="F F F"
Si       0.00000000       0.00000000       0.00000000       0.00000000       0.00000000       2.51128888
Si       0.00000000       0.00000000       2.84141414       0.00000000       0.00000000      -2.51128888
2
Properties=species:S:1:pos:R:3:forces:R:3 energy=-4.219748505084189 pbc="F F F"
Si       0.00000000       0.00000000       0.00000000       0.00000000       0.00000000       2.42113256
Si       0.00000000       0.00000000       2.90101010       0.00000000       0.00000000      -2.42113256
2
Properties=species:S:1:pos:R:3:forces:R:3 energy=-4.079089431058013 pbc="F F F"
Si       0.00000000       0.00000000       0.00000000       0.00000000       0.00000000       2.29480529
Si       0.00000000       0.00000000       2.96060606       0.00000000       0.00000000      -2.29480529
2
Properties=species:S:1:pos:R:3:forces:R:3 energy=-3.946529888924552 pbc="F F F"
Si       0.00000000       0.00000000       0.00000000       0.00000000       0.00000000       2.15308857
Si       0.00000000       0.00000000       3.02020202       0.00000000       0.00000000      -2.15308857
2
Properties=species:S:1:pos:R:3:forces:R:3 energy=-3.8224226089535422 pbc="F F F"
Si       0.00000000       0.00000000       0.00000000       0.00000000       0.00000000       2.01259995
Si       0.00000000       0.00000000       3.07979798       0.00000000       0.00000000      -2.01259995
2
Properties=species:S:1:pos:R:3:forces:R:3 energy=-3.7065853272702984 pbc="F F F"
Si       0.00000000       0.00000000       0.00000000       0.00000000       0.00000000       1.87490952
Si       0.00000000       0.00000000       3.13939394       0.00000000       0.00000000      -1.87490952
2
Properties=species:S:1:pos:R:3:forces:R:3 energy=-3.598953051410959 pbc="F F F"
Si       0.00000000       0.00000000       0.00000000       0.00000000       0.00000000       1.73703945
Si       0.00000000       0.00000000       3.19898990       0.00000000       0.00000000      -1.73703945
2
Properties=species:S:1:pos:R:3:forces:R:3 energy=-3.499539664661198 pbc="F F F"
Si       0.00000000       0.00000000       0.00000000       0.00000000       0.00000000       1.59946489
Si       0.00000000       0.00000000       3.25858586       0.00000000       0.00000000      -1.59946489
2
Properties=species:S:1:pos:R:3:forces:R:3 energy=-3.4082602245723654 pbc="F F F"
Si       0.00000000       0.00000000       0.00000000       0.00000000       0.00000000       1.46446180
Si       0.00000000       0.00000000       3.31818182       0.00000000       0.00000000      -1.46446180
2
Properties=species:S:1:pos:R:3:forces:R:3 energy=-3.324898980890425 pbc="F F F"
Si       0.00000000       0.00000000       0.00000000       0.00000000       0.00000000       1.33382642
Si       0.00000000       0.00000000       3.37777778       0.00000000       0.00000000      -1.33382642
2
Properties=species:S:1:pos:R:3:forces:R:3 energy=-3.249180577532281 pbc="F F F"
Si       0.00000000       0.00000000       0.00000000       0.00000000       0.00000000       1.20815706
Si       0.00000000       0.00000000       3.43737374       0.00000000       0.00000000      -1.20815706
2
Properties=species:S:1:pos:R:3:forces:R:3 energy=-3.180787592366633 pbc="F F F"
Si       0.00000000       0.00000000       0.00000000       0.00000000       0.00000000       1.08804560
Si       0.00000000       0.00000000       3.49696970       0.00000000       0.00000000      -1.08804560
2
Properties=species:S:1:pos:R:3:forces:R:3 energy=-3.119361383022493 pbc="F F F"
Si       0.00000000       0.00000000       0.00000000       0.00000000       0.00000000       0.97452742
Si       0.00000000       0.00000000       3.55656566       0.00000000       0.00000000      -0.97452742
2
Properties=species:S:1:pos:R:3:forces:R:3 energy=-3.0644862640679262 pbc="F F F"
Si       0.00000000       0.00000000       0.00000000       0.00000000       0.00000000       0.86828804
Si       0.00000000       0.00000000       3.61616162       0.00000000       0.00000000      -0.86828804
2
Properties=species:S:1:pos:R:3:forces:R:3 energy=-3.015718418182653 pbc="F F F"
Si       0.00000000       0.00000000       0.00000000       0.00000000       0.00000000       0.76957953
Si       0.00000000       0.00000000       3.67575758       0.00000000       0.00000000      -0.76957953
2
Properties=species:S:1:pos:R:3:forces:R:3 energy=-2.97260031848221 pbc="F F F"
Si       0.00000000       0.00000000       0.00000000       0.00000000       0.00000000       0.67887920
Si       0.00000000       0.00000000       3.73535354       0.00000000       0.00000000      -0.67887920
2
Properties=species:S:1:pos:R:3:forces:R:3 energy=-2.934626370899983 pbc="F F F"
Si       0.00000000       0.00000000       0.00000000       0.00000000       0.00000000       0.59705895
Si       0.00000000       0.00000000       3.79494949       0.00000000       0.00000000      -0.59705895
2
Properties=species:S:1:pos:R:3:forces:R:3 energy=-2.901244935577439 pbc="F F F"
Si       0.00000000       0.00000000       0.00000000       0.00000000       0.00000000       0.52489239
Si       0.00000000       0.00000000       3.85454545       0.00000000       0.00000000      -0.52489239
2
Properties=species:S:1:pos:R:3:forces:R:3 energy=-2.8718686652261427 pbc="F F F"
Si       0.00000000       0.00000000       0.00000000       0.00000000       0.00000000       0.46251693
Si       0.00000000       0.00000000       3.91414141       0.00000000       0.00000000      -0.46251693
2
Properties=species:S:1:pos:R:3:forces:R:3 energy=-2.8459325652194587 pbc="F F F"
Si       0.00000000       0.00000000       0.00000000       0.00000000       0.00000000       0.40930152
Si       0.00000000       0.00000000       3.97373737       0.00000000       0.00000000      -0.40930152
2
Properties=species:S:1:pos:R:3:forces:R:3 energy=-2.8229243939612583 pbc="F F F"
Si       0.00000000       0.00000000       0.00000000       0.00000000       0.00000000       0.36408994
Si       0.00000000       0.00000000       4.03333333       0.00000000       0.00000000      -0.36408994
2
Properties=species:S:1:pos:R:3:forces:R:3 energy=-2.8024017118141953 pbc="F F F"
Si       0.00000000       0.00000000       0.00000000       0.00000000       0.00000000       0.32558489
Si       0.00000000       0.00000000       4.09292929       0.00000000       0.00000000      -0.32558489
2
Properties=species:S:1:pos:R:3:forces:R:3 energy=-2.7840059771381895 pbc="F F F"
Si       0.00000000       0.00000000       0.00000000       0.00000000       0.00000000       0.29267338
Si       0.00000000       0.00000000       4.15252525       0.00000000       0.00000000      -0.29267338
2
Properties=species:S:1:pos:R:3:forces:R:3 energy=-2.7674232967558146 pbc="F F F"
Si       0.00000000       0.00000000       0.00000000       0.00000000       0.00000000       0.26457518
Si       0.00000000       0.00000000       4.21212121       0.00000000       0.00000000      -0.26457518
2
Properties=species:S:1:pos:R:3:forces:R:3 energy=-2.7523861654063557 pbc="F F F"
Si       0.00000000       0.00000000       0.00000000       0.00000000       0.00000000       0.24078505
Si       0.00000000       0.00000000       4.27171717       0.00000000       0.00000000      -0.24078505
2
Properties=species:S:1:pos:R:3:forces:R:3 energy=-2.7386476468471788 pbc="F F F"
Si       0.00000000       0.00000000       0.00000000       0.00000000       0.00000000       0.22090311
Si       0.00000000       0.00000000       4.33131313       0.00000000       0.00000000      -0.22090311
2
Properties=species:S:1:pos:R:3:forces:R:3 energy=-2.7259868979107473 pbc="F F F"
Si       0.00000000       0.00000000       0.00000000       0.00000000       0.00000000       0.20445229
Si       0.00000000       0.00000000       4.39090909       0.00000000       0.00000000      -0.20445229
2
Properties=species:S:1:pos:R:3:forces:R:3 energy=-2.7142196367473455 pbc="F F F"
Si       0.00000000       0.00000000       0.00000000       0.00000000       0.00000000       0.19080018
Si       0.00000000       0.00000000       4.45050505       0.00000000       0.00000000      -0.19080018
2
Properties=species:S:1:pos:R:3:forces:R:3 energy=-2.7032047345980055 pbc="F F F"
Si       0.00000000       0.00000000       0.00000000       0.00000000       0.00000000       0.17920510
Si       0.00000000       0.00000000       4.51010101       0.00000000       0.00000000      -0.17920510
2
Properties=species:S:1:pos:R:3:forces:R:3 energy=-2.692834622030548 pbc="F F F"
Si       0.00000000       0.00000000       0.00000000       0.00000000       0.00000000       0.16892809
Si       0.00000000       0.00000000       4.56969697       0.00000000       0.00000000      -0.16892809
2
Properties=species:S:1:pos:R:3:forces:R:3 energy=-2.683054421030617 pbc="F F F"
Si       0.00000000       0.00000000       0.00000000       0.00000000       0.00000000       0.15935841
Si       0.00000000       0.00000000       4.62929293       0.00000000       0.00000000      -0.15935841
2
Properties=species:S:1:pos:R:3:forces:R:3 energy=-2.6738361546134497 pbc="F F F"
Si       0.00000000       0.00000000       0.00000000       0.00000000       0.00000000       0.15009984
Si       0.00000000       0.00000000       4.68888889       0.00000000       0.00000000      -0.15009984
2
Properties=species:S:1:pos:R:3:forces:R:3 energy=-2.6651597572848367 pbc="F F F"
Si       0.00000000       0.00000000       0.00000000       0.00000000       0.00000000       0.14099710
Si       0.00000000       0.00000000       4.74848485       0.00000000       0.00000000      -0.14099710
2
Properties=species:S:1:pos:R:3:forces:R:3 energy=-2.657025428457723 pbc="F F F"
Si       0.00000000       0.00000000       0.00000000       0.00000000       0.00000000       0.13211538
Si       0.00000000       0.00000000       4.80808081       0.00000000       0.00000000      -0.13211538
2
Properties=species:S:1:pos:R:3:forces:R:3 energy=-2.649406148309185 pbc="F F F"
Si       0.00000000       0.00000000       0.00000000       0.00000000       0.00000000       0.12367387
Si       0.00000000       0.00000000       4.86767677       0.00000000       0.00000000      -0.12367387
2
Properties=species:S:1:pos:R:3:forces:R:3 energy=-2.642269575859751 pbc="F F F"
Si       0.00000000       0.00000000       0.00000000       0.00000000       0.00000000       0.11595139
Si       0.00000000       0.00000000       4.92727273       0.00000000       0.00000000      -0.11595139
2
Properties=species:S:1:pos:R:3:forces:R:3 energy=-2.635566699916272 pbc="F F F"
Si       0.00000000       0.00000000       0.00000000       0.00000000       0.00000000       0.10917313
Si       0.00000000       0.00000000       4.98686869       0.00000000       0.00000000      -0.10917313
2
Properties=species:S:1:pos:R:3:forces:R:3 energy=-2.6292395587493798 pbc="F F F"
Si       0.00000000       0.00000000       0.00000000       0.00000000       0.00000000       0.10340632
Si       0.00000000       0.00000000       5.04646465       0.00000000       0.00000000      -0.10340632
2
Properties=species:S:1:pos:R:3:forces:R:3 energy=-2.623224110619907 pbc="F F F"
Si       0.00000000       0.00000000       0.00000000       0.00000000       0.00000000       0.09850296
Si       0.00000000       0.00000000       5.10606061       0.00000000       0.00000000      -0.09850296
2
Properties=species:S:1:pos:R:3:forces:R:3 energy=-2.6174875593337985 pbc="F F F"
Si       0.00000000       0.00000000       0.00000000       0.00000000       0.00000000       0.09408376
Si       0.00000000       0.00000000       5.16565657       0.00000000       0.00000000      -0.09408376
2
Properties=species:S:1:pos:R:3:forces:R:3 energy=-2.6120121599937116 pbc="F F F"
Si       0.00000000       0.00000000       0.00000000       0.00000000       0.00000000       0.08961120
Si       0.00000000       0.00000000       5.22525253       0.00000000       0.00000000      -0.08961120
2
Properties=species:S:1:pos:R:3:forces:R:3 energy=-2.606819102038613 pbc="F F F"
Si       0.00000000       0.00000000       0.00000000       0.00000000       0.00000000       0.08450183
Si       0.00000000       0.00000000       5.28484848       0.00000000       0.00000000      -0.08450183
2
Properties=species:S:1:pos:R:3:forces:R:3 energy=-2.601961905591518 pbc="F F F"
Si       0.00000000       0.00000000       0.00000000       0.00000000       0.00000000       0.07827173
Si       0.00000000       0.00000000       5.34444444       0.00000000       0.00000000      -0.07827173
2
Properties=species:S:1:pos:R:3:forces:R:3 energy=-2.5975150011263617 pbc="F F F"
Si       0.00000000       0.00000000       0.00000000       0.00000000       0.00000000       0.07065995
Si       0.00000000       0.00000000       5.40404040       0.00000000       0.00000000      -0.07065995
2
Properties=species:S:1:pos:R:3:forces:R:3 energy=-2.5935661325436414 pbc="F F F"
Si       0.00000000       0.00000000       0.00000000       0.00000000       0.00000000       0.06170880
Si       0.00000000       0.00000000       5.46363636       0.00000000       0.00000000      -0.06170880
2
Properties=species:S:1:pos:R:3:forces:R:3 energy=-2.590183010247566 pbc="F F F"
Si       0.00000000       0.00000000       0.00000000       0.00000000       0.00000000       0.05177345
Si       0.00000000       0.00000000       5.52323232       0.00000000       0.00000000      -0.05177345
2
Properties=species:S:1:pos:R:3:forces:R:3 energy=-2.5874057078860573 pbc="F F F"
Si       0.00000000       0.00000000       0.00000000       0.00000000       0.00000000       0.04145336
Si       0.00000000       0.00000000       5.58282828       0.00000000       0.00000000      -0.04145336
2
Properties=species:S:1:pos:R:3:forces:R:3 energy=-2.5852352206348193 pbc="F F F"
Si       0.00000000       0.00000000       0.00000000       0.00000000       0.00000000       0.03149601
Si       0.00000000       0.00000000       5.64242424       0.00000000       0.00000000      -0.03149601
2
Properties=species:S:1:pos:R:3:forces:R:3 energy=-2.583625864313207 pbc="F F F"
Si       0.00000000       0.00000000       0.00000000       0.00000000       0.00000000       0.02263866
Si       0.00000000       0.00000000       5.70202020       0.00000000       0.00000000      -0.02263866
2
Properties=species:S:1:pos:R:3:forces:R:3 energy=-2.5825005492204425 pbc="F F F"
Si       0.00000000       0.00000000       0.00000000       0.00000000       0.00000000       0.01548348
Si       0.00000000       0.00000000       5.76161616       0.00000000       0.00000000      -0.01548348
2
Properties=species:S:1:pos:R:3:forces:R:3 energy=-2.581741229533231 pbc="F F F"
Si       0.00000000       0.00000000       0.00000000       0.00000000       0.00000000       0.01035379
Si       0.00000000       0.00000000       5.82121212       0.00000000       0.00000000      -0.01035379
2
Properties=species:S:1:pos:R:3:forces:R:3 energy=-2.581228035234976 pbc="F F F"
Si       0.00000000       0.00000000       0.00000000       0.00000000       0.00000000       0.00724694
Si       0.00000000       0.00000000       5.88080808       0.00000000       0.00000000      -0.00724694
2
Properties=species:S:1:pos:R:3:forces:R:3 energy=-2.580844973570834 pbc="F F F"
Si       0.00000000       0.00000000       0.00000000       0.00000000       0.00000000       0.00577898
Si       0.00000000       0.00000000       5.94040404       0.00000000       0.00000000      -0.00577898
2
Properties=species:S:1:pos:R:3:forces:R:3 energy=-2.580518102946859 pbc="F F F"
Si       0.00000000       0.00000000       0.00000000       0.00000000       0.00000000       0.00526128
Si       0.00000000       0.00000000       6.00000000       0.00000000       0.00000000      -0.00526128
