2
Properties=species:S:1:pos:R:3:forces:R:3 energy=211771903.86296976 pbc="F F F"
Sm       0.00000000       0.00000000       0.00000000       0.00000000       0.00000000 -1954524672.00000000
Sm       0.00000000       0.00000000       0.18000000       0.00000000       0.00000000 1954524672.00000000
2
Properties=species:S:1:pos:R:3:forces:R:3 energy=110947935.86296974 pbc="F F F"
Sm       0.00000000       0.00000000       0.00000000       0.00000000       0.00000000 -1415459840.00000000
Sm       0.00000000       0.00000000       0.23878788       0.00000000       0.00000000 1415459840.00000000
2
Properties=species:S:1:pos:R:3:forces:R:3 energy=46937499.86296975 pbc="F F F"
Sm       0.00000000       0.00000000       0.00000000       0.00000000       0.00000000 -778212736.00000000
Sm       0.00000000       0.00000000       0.29757576       0.00000000       0.00000000 778212736.00000000
2
Properties=species:S:1:pos:R:3:forces:R:3 energy=15654387.862969745 pbc="F F F"
Sm       0.00000000       0.00000000       0.00000000       0.00000000       0.00000000 -325345536.00000000
Sm       0.00000000       0.00000000       0.35636364       0.00000000       0.00000000 325345536.00000000
2
Properties=species:S:1:pos:R:3:forces:R:3 energy=4007253.8629697454 pbc="F F F"
Sm       0.00000000       0.00000000       0.00000000       0.00000000       0.00000000 -103930432.00000000
Sm       0.00000000       0.00000000       0.41515152       0.00000000       0.00000000 103930432.00000000
2
Properties=species:S:1:pos:R:3:forces:R:3 energy=724128.1129697708 pbc="F F F"
Sm       0.00000000       0.00000000       0.00000000       0.00000000       0.00000000 -24154402.00000000
Sm       0.00000000       0.00000000       0.47393939       0.00000000       0.00000000 24154402.00000000
2
Properties=species:S:1:pos:R:3:forces:R:3 energy=79456.48015727077 pbc="F F F"
Sm       0.00000000       0.00000000       0.00000000       0.00000000       0.00000000 -3319536.75000000
Sm       0.00000000       0.00000000       0.53272727       0.00000000       0.00000000 3319536.75000000
2
Properties=species:S:1:pos:R:3:forces:R:3 energy=7351.347833077364 pbc="F F F"
Sm       0.00000000       0.00000000       0.00000000       0.00000000       0.00000000 -220315.40625000
Sm       0.00000000       0.00000000       0.59151515       0.00000000       0.00000000  220315.40625000
2
Properties=species:S:1:pos:R:3:forces:R:3 energy=3278.9252257061744 pbc="F F F"
Sm       0.00000000       0.00000000       0.00000000       0.00000000       0.00000000   -8588.77148438
Sm       0.00000000       0.00000000       0.65030303       0.00000000       0.00000000    8588.77148438
2
Properties=species:S:1:pos:R:3:forces:R:3 energy=2609.3871398447022 pbc="F F F"
Sm       0.00000000       0.00000000       0.00000000       0.00000000       0.00000000  -15850.09375000
Sm       0.00000000       0.00000000       0.70909091       0.00000000       0.00000000   15850.09375000
2
Properties=species:S:1:pos:R:3:forces:R:3 energy=1665.33464973704 pbc="F F F"
Sm       0.00000000       0.00000000       0.00000000       0.00000000       0.00000000  -14634.38964844
Sm       0.00000000       0.00000000       0.76787879       0.00000000       0.00000000   14634.38964844
2
Properties=species:S:1:pos:R:3:forces:R:3 energy=1009.1900576039394 pbc="F F F"
Sm       0.00000000       0.00000000       0.00000000       0.00000000       0.00000000   -8558.37695312
Sm       0.00000000       0.00000000       0.82666667       0.00000000       0.00000000    8558.37695312
2
Properties=species:S:1:pos:R:3:forces:R:3 energy=563.5593205400063 pbc="F F F"
Sm       0.00000000       0.00000000       0.00000000       0.00000000       0.00000000   -5499.10156250
Sm       0.00000000       0.00000000       0.88545455       0.00000000       0.00000000    5499.10156250
2
Properties=species:S:1:pos:R:3:forces:R:3 energy=333.39895100908427 pbc="F F F"
Sm       0.00000000       0.00000000       0.00000000       0.00000000       0.00000000   -2615.96728516
Sm       0.00000000       0.00000000       0.94424242       0.00000000       0.00000000    2615.96728516
2
Properties=species:S:1:pos:R:3:forces:R:3 energy=217.81789676507935 pbc="F F F"
Sm       0.00000000       0.00000000       0.00000000       0.00000000       0.00000000   -1470.76293945
Sm       0.00000000       0.00000000       1.00303030       0.00000000       0.00000000    1470.76293945
2
Properties=species:S:1:pos:R:3:forces:R:3 energy=151.5103564924178 pbc="F F F"
Sm       0.00000000       0.00000000       0.00000000       0.00000000       0.00000000    -840.55950928
Sm       0.00000000       0.00000000       1.06181818       0.00000000       0.00000000     840.55950928
2
Properties=species:S:1:pos:R:3:forces:R:3 energy=105.03790705970391 pbc="F F F"
Sm       0.00000000       0.00000000       0.00000000       0.00000000       0.00000000    -713.62487793
Sm       0.00000000       0.00000000       1.12060606       0.00000000       0.00000000     713.62487793
2
Properties=species:S:1:pos:R:3:forces:R:3 energy=70.39889293900954 pbc="F F F"
Sm       0.00000000       0.00000000       0.00000000       0.00000000       0.00000000    -431.56848145
Sm       0.00000000       0.00000000       1.17939394       0.00000000       0.00000000     431.56848145
2
Properties=species:S:1:pos:R:3:forces:R:3 energy=50.95188811993663 pbc="F F F"
Sm       0.00000000       0.00000000       0.00000000       0.00000000       0.00000000    -249.68310547
Sm       0.00000000       0.00000000       1.23818182       0.00000000       0.00000000     249.68310547
2
Properties=species:S:1:pos:R:3:forces:R:3 energy=38.800751600924265 pbc="F F F"
Sm       0.00000000       0.00000000       0.00000000       0.00000000       0.00000000    -162.24209595
Sm       0.00000000       0.00000000       1.29696970       0.00000000       0.00000000     162.24209595
2
Properties=species:S:1:pos:R:3:forces:R:3 energy=31.097005128068126 pbc="F F F"
Sm       0.00000000       0.00000000       0.00000000       0.00000000       0.00000000    -108.73637390
Sm       0.00000000       0.00000000       1.35575758       0.00000000       0.00000000     108.73637390
2
Properties=species:S:1:pos:R:3:forces:R:3 energy=25.080890870489505 pbc="F F F"
Sm       0.00000000       0.00000000       0.00000000       0.00000000       0.00000000     -97.54094696
Sm       0.00000000       0.00000000       1.41454545       0.00000000       0.00000000      97.54094696
2
Properties=species:S:1:pos:R:3:forces:R:3 energy=19.84286870248195 pbc="F F F"
Sm       0.00000000       0.00000000       0.00000000       0.00000000       0.00000000     -77.32509613
Sm       0.00000000       0.00000000       1.47333333       0.00000000       0.00000000      77.32509613
2
Properties=species:S:1:pos:R:3:forces:R:3 energy=16.07484475144273 pbc="F F F"
Sm       0.00000000       0.00000000       0.00000000       0.00000000       0.00000000     -53.23126602
Sm       0.00000000       0.00000000       1.53212121       0.00000000       0.00000000      53.23126602
2
Properties=species:S:1:pos:R:3:forces:R:3 energy=13.369878709222222 pbc="F F F"
Sm       0.00000000       0.00000000       0.00000000       0.00000000       0.00000000     -40.74361420
Sm       0.00000000       0.00000000       1.59090909       0.00000000       0.00000000      40.74361420
2
Properties=species:S:1:pos:R:3:forces:R:3 energy=11.170109425093468 pbc="F F F"
Sm       0.00000000       0.00000000       0.00000000       0.00000000       0.00000000     -32.84414291
Sm       0.00000000       0.00000000       1.64969697       0.00000000       0.00000000      32.84414291
2
Properties=species:S:1:pos:R:3:forces:R:3 energy=9.403723493080486 pbc="F F F"
Sm       0.00000000       0.00000000       0.00000000       0.00000000       0.00000000     -28.48063087
Sm       0.00000000       0.00000000       1.70848485       0.00000000       0.00000000      28.48063087
2
Properties=species:S:1:pos:R:3:forces:R:3 energy=7.866032115387563 pbc="F F F"
Sm       0.00000000       0.00000000       0.00000000       0.00000000       0.00000000     -23.48410988
Sm       0.00000000       0.00000000       1.76727273       0.00000000       0.00000000      23.48410988
2
Properties=species:S:1:pos:R:3:forces:R:3 energy=6.6196766892393 pbc="F F F"
Sm       0.00000000       0.00000000       0.00000000       0.00000000       0.00000000     -18.94663048
Sm       0.00000000       0.00000000       1.82606061       0.00000000       0.00000000      18.94663048
2
Properties=species:S:1:pos:R:3:forces:R:3 energy=5.572830075483344 pbc="F F F"
Sm       0.00000000       0.00000000       0.00000000       0.00000000       0.00000000     -17.08068275
Sm       0.00000000       0.00000000       1.88484848       0.00000000       0.00000000      17.08068275
2
Properties=species:S:1:pos:R:3:forces:R:3 energy=4.582420475277299 pbc="F F F"
Sm       0.00000000       0.00000000       0.00000000       0.00000000       0.00000000     -16.64664459
Sm       0.00000000       0.00000000       1.94363636       0.00000000       0.00000000      16.64664459
2
Properties=species:S:1:pos:R:3:forces:R:3 energy=3.617045655526621 pbc="F F F"
Sm       0.00000000       0.00000000       0.00000000       0.00000000       0.00000000     -16.16745567
Sm       0.00000000       0.00000000       2.00242424       0.00000000       0.00000000      16.16745567
2
Properties=species:S:1:pos:R:3:forces:R:3 energy=2.6793571856270004 pbc="F F F"
Sm       0.00000000       0.00000000       0.00000000       0.00000000       0.00000000     -15.68709755
Sm       0.00000000       0.00000000       2.06121212       0.00000000       0.00000000      15.68709755
2
Properties=species:S:1:pos:R:3:forces:R:3 energy=1.795850514274513 pbc="F F F"
Sm       0.00000000       0.00000000       0.00000000       0.00000000       0.00000000     -14.17966938
Sm       0.00000000       0.00000000       2.12000000       0.00000000       0.00000000      14.17966938
2
Properties=species:S:1:pos:R:3:forces:R:3 energy=1.0112362696085946 pbc="F F F"
Sm       0.00000000       0.00000000       0.00000000       0.00000000       0.00000000     -12.64251232
Sm       0.00000000       0.00000000       2.17878788       0.00000000       0.00000000      12.64251232
2
Properties=species:S:1:pos:R:3:forces:R:3 energy=0.30730169905735094 pbc="F F F"
Sm       0.00000000       0.00000000       0.00000000       0.00000000       0.00000000     -11.23605633
Sm       0.00000000       0.00000000       2.23757576       0.00000000       0.00000000      11.23605633
2
Properties=species:S:1:pos:R:3:forces:R:3 energy=-0.3083403987776765 pbc="F F F"
Sm       0.00000000       0.00000000       0.00000000       0.00000000       0.00000000      -9.71659756
Sm       0.00000000       0.00000000       2.29636364       0.00000000       0.00000000       9.71659756
2
Properties=species:S:1:pos:R:3:forces:R:3 energy=-0.8313682666618444 pbc="F F F"
Sm       0.00000000       0.00000000       0.00000000       0.00000000       0.00000000      -8.04431438
Sm       0.00000000       0.00000000       2.35515152       0.00000000       0.00000000       8.04431438
2
Properties=species:S:1:pos:R:3:forces:R:3 energy=-1.2569899352373666 pbc="F F F"
Sm       0.00000000       0.00000000       0.00000000       0.00000000       0.00000000      -6.49187613
Sm       0.00000000       0.00000000       2.41393939       0.00000000       0.00000000       6.49187613
2
Properties=species:S:1:pos:R:3:forces:R:3 energy=-1.5999207926033923 pbc="F F F"
Sm       0.00000000       0.00000000       0.00000000       0.00000000       0.00000000      -5.20768642
Sm       0.00000000       0.00000000       2.47272727       0.00000000       0.00000000       5.20768642
2
Properties=species:S:1:pos:R:3:forces:R:3 energy=-1.872478613599894 pbc="F F F"
Sm       0.00000000       0.00000000       0.00000000       0.00000000       0.00000000      -4.09233189
Sm       0.00000000       0.00000000       2.53151515       0.00000000       0.00000000       4.09233189
2
Properties=species:S:1:pos:R:3:forces:R:3 energy=-2.085617355437941 pbc="F F F"
Sm       0.00000000       0.00000000       0.00000000       0.00000000       0.00000000      -3.20790505
Sm       0.00000000       0.00000000       2.59030303       0.00000000       0.00000000       3.20790505
2
Properties=species:S:1:pos:R:3:forces:R:3 energy=-2.2554205867359323 pbc="F F F"
Sm       0.00000000       0.00000000       0.00000000       0.00000000       0.00000000      -2.61059332
Sm       0.00000000       0.00000000       2.64909091       0.00000000       0.00000000       2.61059332
2
Properties=species:S:1:pos:R:3:forces:R:3 energy=-2.395803385443513 pbc="F F F"
Sm       0.00000000       0.00000000       0.00000000       0.00000000       0.00000000      -2.17827964
Sm       0.00000000       0.00000000       2.70787879       0.00000000       0.00000000       2.17827964
2
Properties=species:S:1:pos:R:3:forces:R:3 energy=-2.5120679053192245 pbc="F F F"
Sm       0.00000000       0.00000000       0.00000000       0.00000000       0.00000000      -1.77945185
Sm       0.00000000       0.00000000       2.76666667       0.00000000       0.00000000       1.77945185
2
Properties=species:S:1:pos:R:3:forces:R:3 energy=-2.605712004574444 pbc="F F F"
Sm       0.00000000       0.00000000       0.00000000       0.00000000       0.00000000      -1.41622329
Sm       0.00000000       0.00000000       2.82545455       0.00000000       0.00000000       1.41622329
2
Properties=species:S:1:pos:R:3:forces:R:3 energy=-2.6799625782987704 pbc="F F F"
Sm       0.00000000       0.00000000       0.00000000       0.00000000       0.00000000      -1.12175059
Sm       0.00000000       0.00000000       2.88424242       0.00000000       0.00000000       1.12175059
2
Properties=species:S:1:pos:R:3:forces:R:3 energy=-2.738800649882885 pbc="F F F"
Sm       0.00000000       0.00000000       0.00000000       0.00000000       0.00000000      -0.88775516
Sm       0.00000000       0.00000000       2.94303030       0.00000000       0.00000000       0.88775516
2
Properties=species:S:1:pos:R:3:forces:R:3 energy=-2.784940750553994 pbc="F F F"
Sm       0.00000000       0.00000000       0.00000000       0.00000000       0.00000000      -0.68479764
Sm       0.00000000       0.00000000       3.00181818       0.00000000       0.00000000       0.68479764
2
Properties=species:S:1:pos:R:3:forces:R:3 energy=-2.8195532861081536 pbc="F F F"
Sm       0.00000000       0.00000000       0.00000000       0.00000000       0.00000000      -0.49509272
Sm       0.00000000       0.00000000       3.06060606       0.00000000       0.00000000       0.49509272
2
Properties=species:S:1:pos:R:3:forces:R:3 energy=-2.843564293633228 pbc="F F F"
Sm       0.00000000       0.00000000       0.00000000       0.00000000       0.00000000      -0.32641619
Sm       0.00000000       0.00000000       3.11939394       0.00000000       0.00000000       0.32641619
2
Properties=species:S:1:pos:R:3:forces:R:3 energy=-2.8585369280168824 pbc="F F F"
Sm       0.00000000       0.00000000       0.00000000       0.00000000       0.00000000      -0.18783808
Sm       0.00000000       0.00000000       3.17818182       0.00000000       0.00000000       0.18783808
2
Properties=species:S:1:pos:R:3:forces:R:3 energy=-2.8661475779646626 pbc="F F F"
Sm       0.00000000       0.00000000       0.00000000       0.00000000       0.00000000      -0.07456448
Sm       0.00000000       0.00000000       3.23696970       0.00000000       0.00000000       0.07456448
2
Properties=species:S:1:pos:R:3:forces:R:3 energy=-2.8676472427518434 pbc="F F F"
Sm       0.00000000       0.00000000       0.00000000       0.00000000       0.00000000       0.02102490
Sm       0.00000000       0.00000000       3.29575758       0.00000000       0.00000000      -0.02102490
2
Properties=species:S:1:pos:R:3:forces:R:3 energy=-2.8639653940248953 pbc="F F F"
Sm       0.00000000       0.00000000       0.00000000       0.00000000       0.00000000       0.10166816
Sm       0.00000000       0.00000000       3.35454545       0.00000000       0.00000000      -0.10166816
2
Properties=species:S:1:pos:R:3:forces:R:3 energy=-2.8560027031314683 pbc="F F F"
Sm       0.00000000       0.00000000       0.00000000       0.00000000       0.00000000       0.16654387
Sm       0.00000000       0.00000000       3.41333333       0.00000000       0.00000000      -0.16654387
2
Properties=species:S:1:pos:R:3:forces:R:3 energy=-2.8446626770995844 pbc="F F F"
Sm       0.00000000       0.00000000       0.00000000       0.00000000       0.00000000       0.21734175
Sm       0.00000000       0.00000000       3.47212121       0.00000000       0.00000000      -0.21734175
2
Properties=species:S:1:pos:R:3:forces:R:3 energy=-2.8305959218653776 pbc="F F F"
Sm       0.00000000       0.00000000       0.00000000       0.00000000       0.00000000       0.26056856
Sm       0.00000000       0.00000000       3.53090909       0.00000000       0.00000000      -0.26056856
2
Properties=species:S:1:pos:R:3:forces:R:3 energy=-2.814043815712935 pbc="F F F"
Sm       0.00000000       0.00000000       0.00000000       0.00000000       0.00000000       0.30279514
Sm       0.00000000       0.00000000       3.58969697       0.00000000       0.00000000      -0.30279514
2
Properties=species:S:1:pos:R:3:forces:R:3 energy=-2.794966352317849 pbc="F F F"
Sm       0.00000000       0.00000000       0.00000000       0.00000000       0.00000000       0.34639838
Sm       0.00000000       0.00000000       3.64848485       0.00000000       0.00000000      -0.34639838
2
Properties=species:S:1:pos:R:3:forces:R:3 energy=-2.7733100598736864 pbc="F F F"
Sm       0.00000000       0.00000000       0.00000000       0.00000000       0.00000000       0.39018881
Sm       0.00000000       0.00000000       3.70727273       0.00000000       0.00000000      -0.39018881
2
Properties=species:S:1:pos:R:3:forces:R:3 energy=-2.7491244380576063 pbc="F F F"
Sm       0.00000000       0.00000000       0.00000000       0.00000000       0.00000000       0.43214038
Sm       0.00000000       0.00000000       3.76606061       0.00000000       0.00000000      -0.43214038
2
Properties=species:S:1:pos:R:3:forces:R:3 energy=-2.7225628990333925 pbc="F F F"
Sm       0.00000000       0.00000000       0.00000000       0.00000000       0.00000000       0.47098854
Sm       0.00000000       0.00000000       3.82484848       0.00000000       0.00000000      -0.47098854
2
Properties=species:S:1:pos:R:3:forces:R:3 energy=-2.6938197869327016 pbc="F F F"
Sm       0.00000000       0.00000000       0.00000000       0.00000000       0.00000000       0.50624985
Sm       0.00000000       0.00000000       3.88363636       0.00000000       0.00000000      -0.50624985
2
Properties=species:S:1:pos:R:3:forces:R:3 energy=-2.663115233107599 pbc="F F F"
Sm       0.00000000       0.00000000       0.00000000       0.00000000       0.00000000       0.53768587
Sm       0.00000000       0.00000000       3.94242424       0.00000000       0.00000000      -0.53768587
2
Properties=species:S:1:pos:R:3:forces:R:3 energy=-2.6306836486823197 pbc="F F F"
Sm       0.00000000       0.00000000       0.00000000       0.00000000       0.00000000       0.56499678
Sm       0.00000000       0.00000000       4.00121212       0.00000000       0.00000000      -0.56499678
2
Properties=species:S:1:pos:R:3:forces:R:3 energy=-2.596770914215472 pbc="F F F"
Sm       0.00000000       0.00000000       0.00000000       0.00000000       0.00000000       0.58788943
Sm       0.00000000       0.00000000       4.06000000       0.00000000       0.00000000      -0.58788943
2
Properties=species:S:1:pos:R:3:forces:R:3 energy=-2.561648748171228 pbc="F F F"
Sm       0.00000000       0.00000000       0.00000000       0.00000000       0.00000000       0.60618395
Sm       0.00000000       0.00000000       4.11878788       0.00000000       0.00000000      -0.60618395
2
Properties=species:S:1:pos:R:3:forces:R:3 energy=-2.5255937640982267 pbc="F F F"
Sm       0.00000000       0.00000000       0.00000000       0.00000000       0.00000000       0.61975026
Sm       0.00000000       0.00000000       4.17757576       0.00000000       0.00000000      -0.61975026
2
Properties=species:S:1:pos:R:3:forces:R:3 energy=-2.4888779845715665 pbc="F F F"
Sm       0.00000000       0.00000000       0.00000000       0.00000000       0.00000000       0.62837166
Sm       0.00000000       0.00000000       4.23636364       0.00000000       0.00000000      -0.62837166
2
Properties=species:S:1:pos:R:3:forces:R:3 energy=-2.4518107141637047 pbc="F F F"
Sm       0.00000000       0.00000000       0.00000000       0.00000000       0.00000000       0.63171780
Sm       0.00000000       0.00000000       4.29515152       0.00000000       0.00000000      -0.63171780
2
Properties=species:S:1:pos:R:3:forces:R:3 energy=-2.414715001697476 pbc="F F F"
Sm       0.00000000       0.00000000       0.00000000       0.00000000       0.00000000       0.62952662
Sm       0.00000000       0.00000000       4.35393939       0.00000000       0.00000000      -0.62952662
2
Properties=species:S:1:pos:R:3:forces:R:3 energy=-2.377906482013089 pbc="F F F"
Sm       0.00000000       0.00000000       0.00000000       0.00000000       0.00000000       0.62178653
Sm       0.00000000       0.00000000       4.41272727       0.00000000       0.00000000      -0.62178653
2
Properties=species:S:1:pos:R:3:forces:R:3 energy=-2.3417077824531813 pbc="F F F"
Sm       0.00000000       0.00000000       0.00000000       0.00000000       0.00000000       0.60886985
Sm       0.00000000       0.00000000       4.47151515       0.00000000       0.00000000      -0.60886985
2
Properties=species:S:1:pos:R:3:forces:R:3 energy=-2.3064057595740466 pbc="F F F"
Sm       0.00000000       0.00000000       0.00000000       0.00000000       0.00000000       0.59149617
Sm       0.00000000       0.00000000       4.53030303       0.00000000       0.00000000      -0.59149617
2
Properties=species:S:1:pos:R:3:forces:R:3 energy=-2.2722285095917294 pbc="F F F"
Sm       0.00000000       0.00000000       0.00000000       0.00000000       0.00000000       0.57059878
Sm       0.00000000       0.00000000       4.58909091       0.00000000       0.00000000      -0.57059878
2
Properties=species:S:1:pos:R:3:forces:R:3 energy=-2.239365572940711 pbc="F F F"
Sm       0.00000000       0.00000000       0.00000000       0.00000000       0.00000000       0.54720849
Sm       0.00000000       0.00000000       4.64787879       0.00000000       0.00000000      -0.54720849
2
Properties=species:S:1:pos:R:3:forces:R:3 energy=-2.2079230735671738 pbc="F F F"
Sm       0.00000000       0.00000000       0.00000000       0.00000000       0.00000000       0.52236682
Sm       0.00000000       0.00000000       4.70666667       0.00000000       0.00000000      -0.52236682
2
Properties=species:S:1:pos:R:3:forces:R:3 energy=-2.177957173557804 pbc="F F F"
Sm       0.00000000       0.00000000       0.00000000       0.00000000       0.00000000       0.49712512
Sm       0.00000000       0.00000000       4.76545455       0.00000000       0.00000000      -0.49712512
2
Properties=species:S:1:pos:R:3:forces:R:3 energy=-2.149459780696337 pbc="F F F"
Sm       0.00000000       0.00000000       0.00000000       0.00000000       0.00000000       0.47248557
Sm       0.00000000       0.00000000       4.82424242       0.00000000       0.00000000      -0.47248557
2
Properties=species:S:1:pos:R:3:forces:R:3 energy=-2.122372942277324 pbc="F F F"
Sm       0.00000000       0.00000000       0.00000000       0.00000000       0.00000000       0.44935185
Sm       0.00000000       0.00000000       4.88303030       0.00000000       0.00000000      -0.44935185
2
Properties=species:S:1:pos:R:3:forces:R:3 energy=-2.0965830343612093 pbc="F F F"
Sm       0.00000000       0.00000000       0.00000000       0.00000000       0.00000000       0.42835566
Sm       0.00000000       0.00000000       4.94181818       0.00000000       0.00000000      -0.42835566
2
Properties=species:S:1:pos:R:3:forces:R:3 energy=-2.071961788776873 pbc="F F F"
Sm       0.00000000       0.00000000       0.00000000       0.00000000       0.00000000       0.40970525
Sm       0.00000000       0.00000000       5.00060606       0.00000000       0.00000000      -0.40970525
2
Properties=species:S:1:pos:R:3:forces:R:3 energy=-2.048373127232952 pbc="F F F"
Sm       0.00000000       0.00000000       0.00000000       0.00000000       0.00000000       0.39302352
Sm       0.00000000       0.00000000       5.05939394       0.00000000       0.00000000      -0.39302352
2
Properties=species:S:1:pos:R:3:forces:R:3 energy=-2.0257310756897233 pbc="F F F"
Sm       0.00000000       0.00000000       0.00000000       0.00000000       0.00000000       0.37736166
Sm       0.00000000       0.00000000       5.11818182       0.00000000       0.00000000      -0.37736166
2
Properties=species:S:1:pos:R:3:forces:R:3 energy=-2.00401610353537 pbc="F F F"
Sm       0.00000000       0.00000000       0.00000000       0.00000000       0.00000000       0.36130512
Sm       0.00000000       0.00000000       5.17696970       0.00000000       0.00000000      -0.36130512
2
Properties=species:S:1:pos:R:3:forces:R:3 energy=-1.9832912283434077 pbc="F F F"
Sm       0.00000000       0.00000000       0.00000000       0.00000000       0.00000000       0.34326676
Sm       0.00000000       0.00000000       5.23575758       0.00000000       0.00000000      -0.34326676
2
Properties=species:S:1:pos:R:3:forces:R:3 energy=-1.9637229586937783 pbc="F F F"
Sm       0.00000000       0.00000000       0.00000000       0.00000000       0.00000000       0.32180819
Sm       0.00000000       0.00000000       5.29454545       0.00000000       0.00000000      -0.32180819
2
Properties=species:S:1:pos:R:3:forces:R:3 energy=-1.945539288153419 pbc="F F F"
Sm       0.00000000       0.00000000       0.00000000       0.00000000       0.00000000       0.29599398
Sm       0.00000000       0.00000000       5.35333333       0.00000000       0.00000000      -0.29599398
2
Properties=species:S:1:pos:R:3:forces:R:3 energy=-1.9290076340540983 pbc="F F F"
Sm       0.00000000       0.00000000       0.00000000       0.00000000       0.00000000       0.26569694
Sm       0.00000000       0.00000000       5.41212121       0.00000000       0.00000000      -0.26569694
2
Properties=species:S:1:pos:R:3:forces:R:3 energy=-1.9143737389797242 pbc="F F F"
Sm       0.00000000       0.00000000       0.00000000       0.00000000       0.00000000       0.23163246
Sm       0.00000000       0.00000000       5.47090909       0.00000000       0.00000000      -0.23163246
2
Properties=species:S:1:pos:R:3:forces:R:3 energy=-1.901815818371424 pbc="F F F"
Sm       0.00000000       0.00000000       0.00000000       0.00000000       0.00000000       0.19534914
Sm       0.00000000       0.00000000       5.52969697       0.00000000       0.00000000      -0.19534914
2
Properties=species:S:1:pos:R:3:forces:R:3 energy=-1.8914062298212038 pbc="F F F"
Sm       0.00000000       0.00000000       0.00000000       0.00000000       0.00000000       0.15896937
Sm       0.00000000       0.00000000       5.58848485       0.00000000       0.00000000      -0.15896937
2
Properties=species:S:1:pos:R:3:forces:R:3 energy=-1.8830810758710654 pbc="F F F"
Sm       0.00000000       0.00000000       0.00000000       0.00000000       0.00000000       0.12488423
Sm       0.00000000       0.00000000       5.64727273       0.00000000       0.00000000      -0.12488423
2
Properties=species:S:1:pos:R:3:forces:R:3 energy=-1.8766341335066716 pbc="F F F"
Sm       0.00000000       0.00000000       0.00000000       0.00000000       0.00000000       0.09533555
Sm       0.00000000       0.00000000       5.70606061       0.00000000       0.00000000      -0.09533555
2
Properties=species:S:1:pos:R:3:forces:R:3 energy=-1.8717483697592974 pbc="F F F"
Sm       0.00000000       0.00000000       0.00000000       0.00000000       0.00000000       0.07196967
Sm       0.00000000       0.00000000       5.76484848       0.00000000       0.00000000      -0.07196967
2
Properties=species:S:1:pos:R:3:forces:R:3 energy=-1.868034069671553 pbc="F F F"
Sm       0.00000000       0.00000000       0.00000000       0.00000000       0.00000000       0.05564456
Sm       0.00000000       0.00000000       5.82363636       0.00000000       0.00000000      -0.05564456
2
Properties=species:S:1:pos:R:3:forces:R:3 energy=-1.8650762982656548 pbc="F F F"
Sm       0.00000000       0.00000000       0.00000000       0.00000000       0.00000000       0.04606634
Sm       0.00000000       0.00000000       5.88242424       0.00000000       0.00000000      -0.04606634
2
Properties=species:S:1:pos:R:3:forces:R:3 energy=-1.8625112071600258 pbc="F F F"
Sm       0.00000000       0.00000000       0.00000000       0.00000000       0.00000000       0.04184108
Sm       0.00000000       0.00000000       5.94121212       0.00000000       0.00000000      -0.04184108
2
Properties=species:S:1:pos:R:3:forces:R:3 energy=-1.860096600133065 pbc="F F F"
Sm       0.00000000       0.00000000       0.00000000       0.00000000       0.00000000       0.04060670
Sm       0.00000000       0.00000000       6.00000000       0.00000000       0.00000000      -0.04060670
