2
Properties=species:S:1:pos:R:3:forces:R:3 energy=373490591.86296976 pbc="F F F"
Sm       0.00000000       0.00000000       0.00000000       0.00000000       0.00000000 -1866114816.00000000
Sm       0.00000000       0.00000000       0.10000000       0.00000000       0.00000000 1866114816.00000000
2
Properties=species:S:1:pos:R:3:forces:R:3 energy=252778607.86296976 pbc="F F F"
Sm       0.00000000       0.00000000       0.00000000       0.00000000       0.00000000 -2053713792.00000000
Sm       0.00000000       0.00000000       0.15959596       0.00000000       0.00000000 2053713792.00000000
2
Properties=species:S:1:pos:R:3:forces:R:3 energy=140808511.86296976 pbc="F F F"
Sm       0.00000000       0.00000000       0.00000000       0.00000000       0.00000000 -1629840000.00000000
Sm       0.00000000       0.00000000       0.21919192       0.00000000       0.00000000 1629840000.00000000
2
Properties=species:S:1:pos:R:3:forces:R:3 energy=63327551.86296975 pbc="F F F"
Sm       0.00000000       0.00000000       0.00000000       0.00000000       0.00000000 -969602240.00000000
Sm       0.00000000       0.00000000       0.27878788       0.00000000       0.00000000 969602240.00000000
2
Properties=species:S:1:pos:R:3:forces:R:3 energy=22490855.862969745 pbc="F F F"
Sm       0.00000000       0.00000000       0.00000000       0.00000000       0.00000000 -438810784.00000000
Sm       0.00000000       0.00000000       0.33838384       0.00000000       0.00000000 438810784.00000000
2
Properties=species:S:1:pos:R:3:forces:R:3 energy=6164784.362969746 pbc="F F F"
Sm       0.00000000       0.00000000       0.00000000       0.00000000       0.00000000 -149414192.00000000
Sm       0.00000000       0.00000000       0.39797980       0.00000000       0.00000000 149414192.00000000
2
Properties=species:S:1:pos:R:3:forces:R:3 energy=1220552.737969758 pbc="F F F"
Sm       0.00000000       0.00000000       0.00000000       0.00000000       0.00000000 -37186896.00000000
Sm       0.00000000       0.00000000       0.45757576       0.00000000       0.00000000 37186896.00000000
2
Properties=species:S:1:pos:R:3:forces:R:3 energy=149236.76921977077 pbc="F F F"
Sm       0.00000000       0.00000000       0.00000000       0.00000000       0.00000000 -5883616.50000000
Sm       0.00000000       0.00000000       0.51717172       0.00000000       0.00000000 5883616.50000000
2
Properties=species:S:1:pos:R:3:forces:R:3 energy=12334.650079171115 pbc="F F F"
Sm       0.00000000       0.00000000       0.00000000       0.00000000       0.00000000 -492270.03125000
Sm       0.00000000       0.00000000       0.57676768       0.00000000       0.00000000  492270.03125000
2
Properties=species:S:1:pos:R:3:forces:R:3 energy=3475.5902647686744 pbc="F F F"
Sm       0.00000000       0.00000000       0.00000000       0.00000000       0.00000000  -20027.54492188
Sm       0.00000000       0.00000000       0.63636364       0.00000000       0.00000000   20027.54492188
2
Properties=species:S:1:pos:R:3:forces:R:3 energy=2783.239434753906 pbc="F F F"
Sm       0.00000000       0.00000000       0.00000000       0.00000000       0.00000000  -12153.69824219
Sm       0.00000000       0.00000000       0.69595960       0.00000000       0.00000000   12153.69824219
2
Properties=species:S:1:pos:R:3:forces:R:3 energy=1852.8683411052764 pbc="F F F"
Sm       0.00000000       0.00000000       0.00000000       0.00000000       0.00000000  -15781.25683594
Sm       0.00000000       0.00000000       0.75555556       0.00000000       0.00000000   15781.25683594
2
Properties=species:S:1:pos:R:3:forces:R:3 energy=1103.537530723128 pbc="F F F"
Sm       0.00000000       0.00000000       0.00000000       0.00000000       0.00000000   -8107.13867188
Sm       0.00000000       0.00000000       0.81515152       0.00000000       0.00000000    8107.13867188
2
Properties=species:S:1:pos:R:3:forces:R:3 energy=627.0529117979149 pbc="F F F"
Sm       0.00000000       0.00000000       0.00000000       0.00000000       0.00000000   -6356.98925781
Sm       0.00000000       0.00000000       0.87474747       0.00000000       0.00000000    6356.98925781
2
Properties=species:S:1:pos:R:3:forces:R:3 energy=361.19460522993154 pbc="F F F"
Sm       0.00000000       0.00000000       0.00000000       0.00000000       0.00000000   -3012.84985352
Sm       0.00000000       0.00000000       0.93434343       0.00000000       0.00000000    3012.84985352
2
Properties=species:S:1:pos:R:3:forces:R:3 energy=231.76420101034068 pbc="F F F"
Sm       0.00000000       0.00000000       0.00000000       0.00000000       0.00000000   -1601.79016113
Sm       0.00000000       0.00000000       0.99393939       0.00000000       0.00000000    1601.79016113
2
Properties=species:S:1:pos:R:3:forces:R:3 energy=158.57528253850845 pbc="F F F"
Sm       0.00000000       0.00000000       0.00000000       0.00000000       0.00000000    -871.73486328
Sm       0.00000000       0.00000000       1.05353535       0.00000000       0.00000000     871.73486328
2
Properties=species:S:1:pos:R:3:forces:R:3 energy=110.4801142820881 pbc="F F F"
Sm       0.00000000       0.00000000       0.00000000       0.00000000       0.00000000    -741.70959473
Sm       0.00000000       0.00000000       1.11313131       0.00000000       0.00000000     741.70959473
2
Properties=species:S:1:pos:R:3:forces:R:3 energy=73.42264311747243 pbc="F F F"
Sm       0.00000000       0.00000000       0.00000000       0.00000000       0.00000000    -477.45941162
Sm       0.00000000       0.00000000       1.17272727       0.00000000       0.00000000     477.45941162
2
Properties=species:S:1:pos:R:3:forces:R:3 energy=52.441336502573165 pbc="F F F"
Sm       0.00000000       0.00000000       0.00000000       0.00000000       0.00000000    -259.05535889
Sm       0.00000000       0.00000000       1.23232323       0.00000000       0.00000000     259.05535889
2
Properties=species:S:1:pos:R:3:forces:R:3 energy=39.64065620868247 pbc="F F F"
Sm       0.00000000       0.00000000       0.00000000       0.00000000       0.00000000    -170.52963257
Sm       0.00000000       0.00000000       1.29191919       0.00000000       0.00000000     170.52963257
2
Properties=species:S:1:pos:R:3:forces:R:3 energy=31.56261928218903 pbc="F F F"
Sm       0.00000000       0.00000000       0.00000000       0.00000000       0.00000000    -110.82935333
Sm       0.00000000       0.00000000       1.35151515       0.00000000       0.00000000     110.82935333
2
Properties=species:S:1:pos:R:3:forces:R:3 energy=25.417106653320566 pbc="F F F"
Sm       0.00000000       0.00000000       0.00000000       0.00000000       0.00000000     -98.23870850
Sm       0.00000000       0.00000000       1.41111111       0.00000000       0.00000000      98.23870850
2
Properties=species:S:1:pos:R:3:forces:R:3 energy=20.04768725066985 pbc="F F F"
Sm       0.00000000       0.00000000       0.00000000       0.00000000       0.00000000     -78.65554047
Sm       0.00000000       0.00000000       1.47070707       0.00000000       0.00000000      78.65554047
2
Properties=species:S:1:pos:R:3:forces:R:3 energy=16.172134638449766 pbc="F F F"
Sm       0.00000000       0.00000000       0.00000000       0.00000000       0.00000000     -53.78622055
Sm       0.00000000       0.00000000       1.53030303       0.00000000       0.00000000      53.78622055
2
Properties=species:S:1:pos:R:3:forces:R:3 energy=13.411090702432382 pbc="F F F"
Sm       0.00000000       0.00000000       0.00000000       0.00000000       0.00000000     -40.84462357
Sm       0.00000000       0.00000000       1.58989899       0.00000000       0.00000000      40.84462357
2
Properties=species:S:1:pos:R:3:forces:R:3 energy=11.17674125094718 pbc="F F F"
Sm       0.00000000       0.00000000       0.00000000       0.00000000       0.00000000     -32.87641907
Sm       0.00000000       0.00000000       1.64949495       0.00000000       0.00000000      32.87641907
2
Properties=species:S:1:pos:R:3:forces:R:3 energy=9.386467798698451 pbc="F F F"
Sm       0.00000000       0.00000000       0.00000000       0.00000000       0.00000000     -28.45112228
Sm       0.00000000       0.00000000       1.70909091       0.00000000       0.00000000      28.45112228
2
Properties=species:S:1:pos:R:3:forces:R:3 energy=7.83289980304146 pbc="F F F"
Sm       0.00000000       0.00000000       0.00000000       0.00000000       0.00000000     -23.37281990
Sm       0.00000000       0.00000000       1.76868687       0.00000000       0.00000000      23.37281990
2
Properties=species:S:1:pos:R:3:forces:R:3 energy=6.57771164811526 pbc="F F F"
Sm       0.00000000       0.00000000       0.00000000       0.00000000       0.00000000     -18.82040024
Sm       0.00000000       0.00000000       1.82828283       0.00000000       0.00000000      18.82040024
2
Properties=species:S:1:pos:R:3:forces:R:3 energy=5.521128311028433 pbc="F F F"
Sm       0.00000000       0.00000000       0.00000000       0.00000000       0.00000000     -17.04664993
Sm       0.00000000       0.00000000       1.88787879       0.00000000       0.00000000      17.04664993
2
Properties=species:S:1:pos:R:3:forces:R:3 energy=4.518571174847375 pbc="F F F"
Sm       0.00000000       0.00000000       0.00000000       0.00000000       0.00000000     -16.62157440
Sm       0.00000000       0.00000000       1.94747475       0.00000000       0.00000000      16.62157440
2
Properties=species:S:1:pos:R:3:forces:R:3 energy=3.5420102115316414 pbc="F F F"
Sm       0.00000000       0.00000000       0.00000000       0.00000000       0.00000000     -16.12968636
Sm       0.00000000       0.00000000       2.00707071       0.00000000       0.00000000      16.12968636
2
Properties=species:S:1:pos:R:3:forces:R:3 energy=2.5940073957763343 pbc="F F F"
Sm       0.00000000       0.00000000       0.00000000       0.00000000       0.00000000     -15.60422802
Sm       0.00000000       0.00000000       2.06666667       0.00000000       0.00000000      15.60422802
2
Properties=species:S:1:pos:R:3:forces:R:3 energy=1.7076690339675702 pbc="F F F"
Sm       0.00000000       0.00000000       0.00000000       0.00000000       0.00000000     -13.98081589
Sm       0.00000000       0.00000000       2.12626263       0.00000000       0.00000000      13.98081589
2
Properties=species:S:1:pos:R:3:forces:R:3 energy=0.9223652287580636 pbc="F F F"
Sm       0.00000000       0.00000000       0.00000000       0.00000000       0.00000000     -12.49488068
Sm       0.00000000       0.00000000       2.18585859       0.00000000       0.00000000      12.49488068
2
Properties=species:S:1:pos:R:3:forces:R:3 energy=0.21959713795228739 pbc="F F F"
Sm       0.00000000       0.00000000       0.00000000       0.00000000       0.00000000     -11.02722454
Sm       0.00000000       0.00000000       2.24545455       0.00000000       0.00000000      11.02722454
2
Properties=species:S:1:pos:R:3:forces:R:3 energy=-0.3917482929476328 pbc="F F F"
Sm       0.00000000       0.00000000       0.00000000       0.00000000       0.00000000      -9.48539257
Sm       0.00000000       0.00000000       2.30505051       0.00000000       0.00000000       9.48539257
2
Properties=species:S:1:pos:R:3:forces:R:3 energy=-0.9064461391155509 pbc="F F F"
Sm       0.00000000       0.00000000       0.00000000       0.00000000       0.00000000      -7.77102089
Sm       0.00000000       0.00000000       2.36464646       0.00000000       0.00000000       7.77102089
2
Properties=species:S:1:pos:R:3:forces:R:3 energy=-1.3226331523480759 pbc="F F F"
Sm       0.00000000       0.00000000       0.00000000       0.00000000       0.00000000      -6.25178480
Sm       0.00000000       0.00000000       2.42424242       0.00000000       0.00000000       6.25178480
2
Properties=species:S:1:pos:R:3:forces:R:3 energy=-1.656541902540162 pbc="F F F"
Sm       0.00000000       0.00000000       0.00000000       0.00000000       0.00000000      -4.98485327
Sm       0.00000000       0.00000000       2.48383838       0.00000000       0.00000000       4.98485327
2
Properties=species:S:1:pos:R:3:forces:R:3 energy=-1.920040093610881 pbc="F F F"
Sm       0.00000000       0.00000000       0.00000000       0.00000000       0.00000000      -3.88985229
Sm       0.00000000       0.00000000       2.54343434       0.00000000       0.00000000       3.88985229
2
Properties=species:S:1:pos:R:3:forces:R:3 energy=-2.125465274135078 pbc="F F F"
Sm       0.00000000       0.00000000       0.00000000       0.00000000       0.00000000      -3.05625200
Sm       0.00000000       0.00000000       2.60303030       0.00000000       0.00000000       3.05625200
2
Properties=species:S:1:pos:R:3:forces:R:3 energy=-2.2900187823864244 pbc="F F F"
Sm       0.00000000       0.00000000       0.00000000       0.00000000       0.00000000      -2.50288463
Sm       0.00000000       0.00000000       2.66262626       0.00000000       0.00000000       2.50288463
2
Properties=species:S:1:pos:R:3:forces:R:3 energy=-2.426341422701094 pbc="F F F"
Sm       0.00000000       0.00000000       0.00000000       0.00000000       0.00000000      -2.07986522
Sm       0.00000000       0.00000000       2.72222222       0.00000000       0.00000000       2.07986522
2
Properties=species:S:1:pos:R:3:forces:R:3 energy=-2.538276227133527 pbc="F F F"
Sm       0.00000000       0.00000000       0.00000000       0.00000000       0.00000000      -1.68049037
Sm       0.00000000       0.00000000       2.78181818       0.00000000       0.00000000       1.68049037
2
Properties=species:S:1:pos:R:3:forces:R:3 energy=-2.62761371786864 pbc="F F F"
Sm       0.00000000       0.00000000       0.00000000       0.00000000       0.00000000      -1.32912743
Sm       0.00000000       0.00000000       2.84141414       0.00000000       0.00000000       1.32912743
2
Properties=species:S:1:pos:R:3:forces:R:3 energy=-2.698163396304335 pbc="F F F"
Sm       0.00000000       0.00000000       0.00000000       0.00000000       0.00000000      -1.05001092
Sm       0.00000000       0.00000000       2.90101010       0.00000000       0.00000000       1.05001092
2
Properties=species:S:1:pos:R:3:forces:R:3 energy=-2.75384999370405 pbc="F F F"
Sm       0.00000000       0.00000000       0.00000000       0.00000000       0.00000000      -0.82514030
Sm       0.00000000       0.00000000       2.96060606       0.00000000       0.00000000       0.82514030
2
Properties=species:S:1:pos:R:3:forces:R:3 energy=-2.7969682218551526 pbc="F F F"
Sm       0.00000000       0.00000000       0.00000000       0.00000000       0.00000000      -0.62408233
Sm       0.00000000       0.00000000       3.02020202       0.00000000       0.00000000       0.62408233
2
Properties=species:S:1:pos:R:3:forces:R:3 energy=-2.8284948146397393 pbc="F F F"
Sm       0.00000000       0.00000000       0.00000000       0.00000000       0.00000000      -0.43699262
Sm       0.00000000       0.00000000       3.07979798       0.00000000       0.00000000       0.43699262
2
Properties=species:S:1:pos:R:3:forces:R:3 energy=-2.8495827329478236 pbc="F F F"
Sm       0.00000000       0.00000000       0.00000000       0.00000000       0.00000000      -0.27590936
Sm       0.00000000       0.00000000       3.13939394       0.00000000       0.00000000       0.27590936
2
Properties=species:S:1:pos:R:3:forces:R:3 energy=-2.861995238546764 pbc="F F F"
Sm       0.00000000       0.00000000       0.00000000       0.00000000       0.00000000      -0.14531283
Sm       0.00000000       0.00000000       3.19898990       0.00000000       0.00000000       0.14531283
2
Properties=species:S:1:pos:R:3:forces:R:3 energy=-2.867356115999242 pbc="F F F"
Sm       0.00000000       0.00000000       0.00000000       0.00000000       0.00000000      -0.03762867
Sm       0.00000000       0.00000000       3.25858586       0.00000000       0.00000000       0.03762867
2
Properties=species:S:1:pos:R:3:forces:R:3 energy=-2.8668056623320957 pbc="F F F"
Sm       0.00000000       0.00000000       0.00000000       0.00000000       0.00000000       0.05357036
Sm       0.00000000       0.00000000       3.31818182       0.00000000       0.00000000      -0.05357036
2
Properties=species:S:1:pos:R:3:forces:R:3 energy=-2.861276948477157 pbc="F F F"
Sm       0.00000000       0.00000000       0.00000000       0.00000000       0.00000000       0.12921649
Sm       0.00000000       0.00000000       3.37777778       0.00000000       0.00000000      -0.12921649
2
Properties=species:S:1:pos:R:3:forces:R:3 energy=-2.851727764870751 pbc="F F F"
Sm       0.00000000       0.00000000       0.00000000       0.00000000       0.00000000       0.18872738
Sm       0.00000000       0.00000000       3.43737374       0.00000000       0.00000000      -0.18872738
2
Properties=species:S:1:pos:R:3:forces:R:3 energy=-2.83902424784452 pbc="F F F"
Sm       0.00000000       0.00000000       0.00000000       0.00000000       0.00000000       0.23608936
Sm       0.00000000       0.00000000       3.49696970       0.00000000       0.00000000      -0.23608936
2
Properties=species:S:1:pos:R:3:forces:R:3 energy=-2.82367760215765 pbc="F F F"
Sm       0.00000000       0.00000000       0.00000000       0.00000000       0.00000000       0.27886966
Sm       0.00000000       0.00000000       3.55656566       0.00000000       0.00000000      -0.27886966
2
Properties=species:S:1:pos:R:3:forces:R:3 energy=-2.805771710447847 pbc="F F F"
Sm       0.00000000       0.00000000       0.00000000       0.00000000       0.00000000       0.32227355
Sm       0.00000000       0.00000000       3.61616162       0.00000000       0.00000000      -0.32227355
2
Properties=species:S:1:pos:R:3:forces:R:3 energy=-2.7852406777999863 pbc="F F F"
Sm       0.00000000       0.00000000       0.00000000       0.00000000       0.00000000       0.36682144
Sm       0.00000000       0.00000000       3.67575758       0.00000000       0.00000000      -0.36682144
2
Properties=species:S:1:pos:R:3:forces:R:3 energy=-2.7620670946336165 pbc="F F F"
Sm       0.00000000       0.00000000       0.00000000       0.00000000       0.00000000       0.41055667
Sm       0.00000000       0.00000000       3.73535354       0.00000000       0.00000000      -0.41055667
2
Properties=species:S:1:pos:R:3:forces:R:3 energy=-2.736359474391919 pbc="F F F"
Sm       0.00000000       0.00000000       0.00000000       0.00000000       0.00000000       0.45166031
Sm       0.00000000       0.00000000       3.79494949       0.00000000       0.00000000      -0.45166031
2
Properties=species:S:1:pos:R:3:forces:R:3 energy=-2.708301544076183 pbc="F F F"
Sm       0.00000000       0.00000000       0.00000000       0.00000000       0.00000000       0.48926398
Sm       0.00000000       0.00000000       3.85454545       0.00000000       0.00000000      -0.48926398
2
Properties=species:S:1:pos:R:3:forces:R:3 energy=-2.67811716103672 pbc="F F F"
Sm       0.00000000       0.00000000       0.00000000       0.00000000       0.00000000       0.52305698
Sm       0.00000000       0.00000000       3.91414141       0.00000000       0.00000000      -0.52305698
2
Properties=species:S:1:pos:R:3:forces:R:3 energy=-2.6460386389798027 pbc="F F F"
Sm       0.00000000       0.00000000       0.00000000       0.00000000       0.00000000       0.55276579
Sm       0.00000000       0.00000000       3.97373737       0.00000000       0.00000000      -0.55276579
2
Properties=species:S:1:pos:R:3:forces:R:3 energy=-2.612318445485235 pbc="F F F"
Sm       0.00000000       0.00000000       0.00000000       0.00000000       0.00000000       0.57806641
Sm       0.00000000       0.00000000       4.03333333       0.00000000       0.00000000      -0.57806641
2
Properties=species:S:1:pos:R:3:forces:R:3 energy=-2.5772309572995202 pbc="F F F"
Sm       0.00000000       0.00000000       0.00000000       0.00000000       0.00000000       0.59871149
Sm       0.00000000       0.00000000       4.09292929       0.00000000       0.00000000      -0.59871149
2
Properties=species:S:1:pos:R:3:forces:R:3 energy=-2.5410526359158343 pbc="F F F"
Sm       0.00000000       0.00000000       0.00000000       0.00000000       0.00000000       0.61456013
Sm       0.00000000       0.00000000       4.15252525       0.00000000       0.00000000      -0.61456013
2
Properties=species:S:1:pos:R:3:forces:R:3 energy=-2.5040791050127025 pbc="F F F"
Sm       0.00000000       0.00000000       0.00000000       0.00000000       0.00000000       0.62543547
Sm       0.00000000       0.00000000       4.21212121       0.00000000       0.00000000      -0.62543547
2
Properties=species:S:1:pos:R:3:forces:R:3 energy=-2.4666119383977425 pbc="F F F"
Sm       0.00000000       0.00000000       0.00000000       0.00000000       0.00000000       0.63103747
Sm       0.00000000       0.00000000       4.27171717       0.00000000       0.00000000      -0.63103747
2
Properties=species:S:1:pos:R:3:forces:R:3 energy=-2.4289739061254396 pbc="F F F"
Sm       0.00000000       0.00000000       0.00000000       0.00000000       0.00000000       0.63103503
Sm       0.00000000       0.00000000       4.33131313       0.00000000       0.00000000      -0.63103503
2
Properties=species:S:1:pos:R:3:forces:R:3 energy=-2.3915090631961653 pbc="F F F"
Sm       0.00000000       0.00000000       0.00000000       0.00000000       0.00000000       0.62529117
Sm       0.00000000       0.00000000       4.39090909       0.00000000       0.00000000      -0.62529117
2
Properties=species:S:1:pos:R:3:forces:R:3 energy=-2.354554151997976 pbc="F F F"
Sm       0.00000000       0.00000000       0.00000000       0.00000000       0.00000000       0.61404204
Sm       0.00000000       0.00000000       4.45050505       0.00000000       0.00000000      -0.61404204
2
Properties=species:S:1:pos:R:3:forces:R:3 energy=-2.3184206218787726 pbc="F F F"
Sm       0.00000000       0.00000000       0.00000000       0.00000000       0.00000000       0.59791273
Sm       0.00000000       0.00000000       4.51010101       0.00000000       0.00000000      -0.59791273
2
Properties=species:S:1:pos:R:3:forces:R:3 energy=-2.2833677995525585 pbc="F F F"
Sm       0.00000000       0.00000000       0.00000000       0.00000000       0.00000000       0.57781947
Sm       0.00000000       0.00000000       4.56969697       0.00000000       0.00000000      -0.57781947
2
Properties=species:S:1:pos:R:3:forces:R:3 energy=-2.249606066904602 pbc="F F F"
Sm       0.00000000       0.00000000       0.00000000       0.00000000       0.00000000       0.55480719
Sm       0.00000000       0.00000000       4.62929293       0.00000000       0.00000000      -0.55480719
2
Properties=species:S:1:pos:R:3:forces:R:3 energy=-2.2172785384388067 pbc="F F F"
Sm       0.00000000       0.00000000       0.00000000       0.00000000       0.00000000       0.52996874
Sm       0.00000000       0.00000000       4.68888889       0.00000000       0.00000000      -0.52996874
2
Properties=species:S:1:pos:R:3:forces:R:3 energy=-2.1864498579403993 pbc="F F F"
Sm       0.00000000       0.00000000       0.00000000       0.00000000       0.00000000       0.50439048
Sm       0.00000000       0.00000000       4.74848485       0.00000000       0.00000000      -0.50439048
2
Properties=species:S:1:pos:R:3:forces:R:3 energy=-2.157150843770758 pbc="F F F"
Sm       0.00000000       0.00000000       0.00000000       0.00000000       0.00000000       0.47914213
Sm       0.00000000       0.00000000       4.80808081       0.00000000       0.00000000      -0.47914213
2
Properties=species:S:1:pos:R:3:forces:R:3 energy=-2.129314846113988 pbc="F F F"
Sm       0.00000000       0.00000000       0.00000000       0.00000000       0.00000000       0.45520511
Sm       0.00000000       0.00000000       4.86767677       0.00000000       0.00000000      -0.45520511
2
Properties=species:S:1:pos:R:3:forces:R:3 energy=-2.1028501438615916 pbc="F F F"
Sm       0.00000000       0.00000000       0.00000000       0.00000000       0.00000000       0.43333185
Sm       0.00000000       0.00000000       4.92727273       0.00000000       0.00000000      -0.43333185
2
Properties=species:S:1:pos:R:3:forces:R:3 energy=-2.077617965753679 pbc="F F F"
Sm       0.00000000       0.00000000       0.00000000       0.00000000       0.00000000       0.41385972
Sm       0.00000000       0.00000000       4.98686869       0.00000000       0.00000000      -0.41385972
2
Properties=species:S:1:pos:R:3:forces:R:3 energy=-2.053482227163242 pbc="F F F"
Sm       0.00000000       0.00000000       0.00000000       0.00000000       0.00000000       0.39656284
Sm       0.00000000       0.00000000       5.04646465       0.00000000       0.00000000      -0.39656284
2
Properties=species:S:1:pos:R:3:forces:R:3 energy=-2.0303264491437214 pbc="F F F"
Sm       0.00000000       0.00000000       0.00000000       0.00000000       0.00000000       0.38057381
Sm       0.00000000       0.00000000       5.10606061       0.00000000       0.00000000      -0.38057381
2
Properties=species:S:1:pos:R:3:forces:R:3 energy=-2.0081159690071253 pbc="F F F"
Sm       0.00000000       0.00000000       0.00000000       0.00000000       0.00000000       0.36450231
Sm       0.00000000       0.00000000       5.16565657       0.00000000       0.00000000      -0.36450231
2
Properties=species:S:1:pos:R:3:forces:R:3 energy=-1.9869130090437583 pbc="F F F"
Sm       0.00000000       0.00000000       0.00000000       0.00000000       0.00000000       0.34670335
Sm       0.00000000       0.00000000       5.22525253       0.00000000       0.00000000      -0.34670335
2
Properties=species:S:1:pos:R:3:forces:R:3 energy=-1.9668603690241833 pbc="F F F"
Sm       0.00000000       0.00000000       0.00000000       0.00000000       0.00000000       0.32562935
Sm       0.00000000       0.00000000       5.28484848       0.00000000       0.00000000      -0.32562935
2
Properties=species:S:1:pos:R:3:forces:R:3 energy=-1.9481853169242156 pbc="F F F"
Sm       0.00000000       0.00000000       0.00000000       0.00000000       0.00000000       0.30019367
Sm       0.00000000       0.00000000       5.34444444       0.00000000       0.00000000      -0.30019367
2
Properties=species:S:1:pos:R:3:forces:R:3 energy=-1.9311697842666318 pbc="F F F"
Sm       0.00000000       0.00000000       0.00000000       0.00000000       0.00000000       0.27010843
Sm       0.00000000       0.00000000       5.40404040       0.00000000       0.00000000      -0.27010843
2
Properties=species:S:1:pos:R:3:forces:R:3 energy=-1.9160722091767348 pbc="F F F"
Sm       0.00000000       0.00000000       0.00000000       0.00000000       0.00000000       0.23600854
Sm       0.00000000       0.00000000       5.46363636       0.00000000       0.00000000      -0.23600854
2
Properties=species:S:1:pos:R:3:forces:R:3 energy=-1.9030930140376339 pbc="F F F"
Sm       0.00000000       0.00000000       0.00000000       0.00000000       0.00000000       0.19938889
Sm       0.00000000       0.00000000       5.52323232       0.00000000       0.00000000      -0.19938889
2
Properties=species:S:1:pos:R:3:forces:R:3 energy=-1.892313544991418 pbc="F F F"
Sm       0.00000000       0.00000000       0.00000000       0.00000000       0.00000000       0.16240600
Sm       0.00000000       0.00000000       5.58282828       0.00000000       0.00000000      -0.16240600
2
Properties=species:S:1:pos:R:3:forces:R:3 energy=-1.8836910881556672 pbc="F F F"
Sm       0.00000000       0.00000000       0.00000000       0.00000000       0.00000000       0.12755950
Sm       0.00000000       0.00000000       5.64242424       0.00000000       0.00000000      -0.12755950
2
Properties=species:S:1:pos:R:3:forces:R:3 energy=-1.8770226616776515 pbc="F F F"
Sm       0.00000000       0.00000000       0.00000000       0.00000000       0.00000000       0.09717517
Sm       0.00000000       0.00000000       5.70202020       0.00000000       0.00000000      -0.09717517
2
Properties=species:S:1:pos:R:3:forces:R:3 energy=-1.8719868253487881 pbc="F F F"
Sm       0.00000000       0.00000000       0.00000000       0.00000000       0.00000000       0.07308726
Sm       0.00000000       0.00000000       5.76161616       0.00000000       0.00000000      -0.07308726
2
Properties=species:S:1:pos:R:3:forces:R:3 energy=-1.8681692967626562 pbc="F F F"
Sm       0.00000000       0.00000000       0.00000000       0.00000000       0.00000000       0.05618345
Sm       0.00000000       0.00000000       5.82121212       0.00000000       0.00000000      -0.05618345
2
Properties=species:S:1:pos:R:3:forces:R:3 energy=-1.8651516620333537 pbc="F F F"
Sm       0.00000000       0.00000000       0.00000000       0.00000000       0.00000000       0.04625400
Sm       0.00000000       0.00000000       5.88080808       0.00000000       0.00000000      -0.04625400
2
Properties=species:S:1:pos:R:3:forces:R:3 energy=-1.8625445960054652 pbc="F F F"
Sm       0.00000000       0.00000000       0.00000000       0.00000000       0.00000000       0.04187141
Sm       0.00000000       0.00000000       5.94040404       0.00000000       0.00000000      -0.04187141
2
Properties=species:S:1:pos:R:3:forces:R:3 energy=-1.860096600133065 pbc="F F F"
Sm       0.00000000       0.00000000       0.00000000       0.00000000       0.00000000       0.04060670
Sm       0.00000000       0.00000000       6.00000000       0.00000000       0.00000000      -0.04060670
