2
Properties=species:S:1:pos:R:3:forces:R:3 energy=-5286612.0509570865 pbc="F F F"
Sn       0.00000000       0.00000000       0.00000000       0.00000000       0.00000000 27166228.00000000
Sn       0.00000000       0.00000000       0.10000000       0.00000000       0.00000000 -27166228.00000000
2
Properties=species:S:1:pos:R:3:forces:R:3 energy=-3537167.0509570865 pbc="F F F"
Sn       0.00000000       0.00000000       0.00000000       0.00000000       0.00000000 29604254.00000000
Sn       0.00000000       0.00000000       0.15959596       0.00000000       0.00000000 -29604254.00000000
2
Properties=species:S:1:pos:R:3:forces:R:3 energy=-1945208.4259570865 pbc="F F F"
Sn       0.00000000       0.00000000       0.00000000       0.00000000       0.00000000 22787724.00000000
Sn       0.00000000       0.00000000       0.21919192       0.00000000       0.00000000 -22787724.00000000
2
Properties=species:S:1:pos:R:3:forces:R:3 energy=-873786.8634570866 pbc="F F F"
Sn       0.00000000       0.00000000       0.00000000       0.00000000       0.00000000 13235672.00000000
Sn       0.00000000       0.00000000       0.27878788       0.00000000       0.00000000 -13235672.00000000
2
Properties=species:S:1:pos:R:3:forces:R:3 energy=-324734.8009570802 pbc="F F F"
Sn       0.00000000       0.00000000       0.00000000       0.00000000       0.00000000 5496014.00000000
Sn       0.00000000       0.00000000       0.33838384       0.00000000       0.00000000 -5496014.00000000
2
Properties=species:S:1:pos:R:3:forces:R:3 energy=-111592.30876957388 pbc="F F F"
Sn       0.00000000       0.00000000       0.00000000       0.00000000       0.00000000 2084928.00000000
Sn       0.00000000       0.00000000       0.39797980       0.00000000       0.00000000 -2084928.00000000
2
Properties=species:S:1:pos:R:3:forces:R:3 energy=-35742.67986331755 pbc="F F F"
Sn       0.00000000       0.00000000       0.00000000       0.00000000       0.00000000  686815.18750000
Sn       0.00000000       0.00000000       0.45757576       0.00000000       0.00000000 -686815.18750000
2
Properties=species:S:1:pos:R:3:forces:R:3 energy=-11739.57732423921 pbc="F F F"
Sn       0.00000000       0.00000000       0.00000000       0.00000000       0.00000000  219866.70312500
Sn       0.00000000       0.00000000       0.51717172       0.00000000       0.00000000 -219866.70312500
2
Properties=species:S:1:pos:R:3:forces:R:3 energy=-3570.6976855388248 pbc="F F F"
Sn       0.00000000       0.00000000       0.00000000       0.00000000       0.00000000   74812.01562500
Sn       0.00000000       0.00000000       0.57676768       0.00000000       0.00000000  -74812.01562500
2
Properties=species:S:1:pos:R:3:forces:R:3 energy=-968.7345507161788 pbc="F F F"
Sn       0.00000000       0.00000000       0.00000000       0.00000000       0.00000000   27612.63476562
Sn       0.00000000       0.00000000       0.63636364       0.00000000       0.00000000  -27612.63476562
2
Properties=species:S:1:pos:R:3:forces:R:3 energy=414.7139967294658 pbc="F F F"
Sn       0.00000000       0.00000000       0.00000000       0.00000000       0.00000000   10295.96289062
Sn       0.00000000       0.00000000       0.69595960       0.00000000       0.00000000  -10295.96289062
2
Properties=species:S:1:pos:R:3:forces:R:3 energy=355.06497952852993 pbc="F F F"
Sn       0.00000000       0.00000000       0.00000000       0.00000000       0.00000000   -4446.15625000
Sn       0.00000000       0.00000000       0.75555556       0.00000000       0.00000000    4446.15625000
2
Properties=species:S:1:pos:R:3:forces:R:3 energy=124.43355576840398 pbc="F F F"
Sn       0.00000000       0.00000000       0.00000000       0.00000000       0.00000000   -3522.18847656
Sn       0.00000000       0.00000000       0.81515152       0.00000000       0.00000000    3522.18847656
2
Properties=species:S:1:pos:R:3:forces:R:3 energy=0.6858663232038194 pbc="F F F"
Sn       0.00000000       0.00000000       0.00000000       0.00000000       0.00000000    -311.22326660
Sn       0.00000000       0.00000000       0.87474747       0.00000000       0.00000000     311.22326660
2
Properties=species:S:1:pos:R:3:forces:R:3 energy=-2.904782408778617 pbc="F F F"
Sn       0.00000000       0.00000000       0.00000000       0.00000000       0.00000000     279.62524414
Sn       0.00000000       0.00000000       0.93434343       0.00000000       0.00000000    -279.62524414
2
Properties=species:S:1:pos:R:3:forces:R:3 energy=17.39261193808274 pbc="F F F"
Sn       0.00000000       0.00000000       0.00000000       0.00000000       0.00000000     259.80261230
Sn       0.00000000       0.00000000       0.99393939       0.00000000       0.00000000    -259.80261230
2
Properties=species:S:1:pos:R:3:forces:R:3 energy=24.988197542402244 pbc="F F F"
Sn       0.00000000       0.00000000       0.00000000       0.00000000       0.00000000      45.29082870
Sn       0.00000000       0.00000000       1.05353535       0.00000000       0.00000000     -45.29082870
2
Properties=species:S:1:pos:R:3:forces:R:3 energy=26.49812819408082 pbc="F F F"
Sn       0.00000000       0.00000000       0.00000000       0.00000000       0.00000000     -40.10310364
Sn       0.00000000       0.00000000       1.11313131       0.00000000       0.00000000      40.10310364
2
Properties=species:S:1:pos:R:3:forces:R:3 energy=25.240229258018612 pbc="F F F"
Sn       0.00000000       0.00000000       0.00000000       0.00000000       0.00000000      14.07210350
Sn       0.00000000       0.00000000       1.17272727       0.00000000       0.00000000     -14.07210350
2
Properties=species:S:1:pos:R:3:forces:R:3 energy=26.243637480629488 pbc="F F F"
Sn       0.00000000       0.00000000       0.00000000       0.00000000       0.00000000      48.84906006
Sn       0.00000000       0.00000000       1.23232323       0.00000000       0.00000000     -48.84906006
2
Properties=species:S:1:pos:R:3:forces:R:3 energy=26.520472243825353 pbc="F F F"
Sn       0.00000000       0.00000000       0.00000000       0.00000000       0.00000000     -44.98901367
Sn       0.00000000       0.00000000       1.29191919       0.00000000       0.00000000      44.98901367
2
Properties=species:S:1:pos:R:3:forces:R:3 energy=24.17916832293272 pbc="F F F"
Sn       0.00000000       0.00000000       0.00000000       0.00000000       0.00000000     -38.20300674
Sn       0.00000000       0.00000000       1.35151515       0.00000000       0.00000000      38.20300674
2
Properties=species:S:1:pos:R:3:forces:R:3 energy=21.352370504320433 pbc="F F F"
Sn       0.00000000       0.00000000       0.00000000       0.00000000       0.00000000     -51.46220779
Sn       0.00000000       0.00000000       1.41111111       0.00000000       0.00000000      51.46220779
2
Properties=species:S:1:pos:R:3:forces:R:3 energy=18.668229870481895 pbc="F F F"
Sn       0.00000000       0.00000000       0.00000000       0.00000000       0.00000000     -41.56682205
Sn       0.00000000       0.00000000       1.47070707       0.00000000       0.00000000      41.56682205
2
Properties=species:S:1:pos:R:3:forces:R:3 energy=16.322036201128082 pbc="F F F"
Sn       0.00000000       0.00000000       0.00000000       0.00000000       0.00000000     -38.11815643
Sn       0.00000000       0.00000000       1.53030303       0.00000000       0.00000000      38.11815643
2
Properties=species:S:1:pos:R:3:forces:R:3 energy=14.052852949267779 pbc="F F F"
Sn       0.00000000       0.00000000       0.00000000       0.00000000       0.00000000     -37.33110046
Sn       0.00000000       0.00000000       1.58989899       0.00000000       0.00000000      37.33110046
2
Properties=species:S:1:pos:R:3:forces:R:3 energy=11.913294548684668 pbc="F F F"
Sn       0.00000000       0.00000000       0.00000000       0.00000000       0.00000000     -34.24606323
Sn       0.00000000       0.00000000       1.64949495       0.00000000       0.00000000      34.24606323
2
Properties=species:S:1:pos:R:3:forces:R:3 energy=9.918875651926395 pbc="F F F"
Sn       0.00000000       0.00000000       0.00000000       0.00000000       0.00000000     -32.88919449
Sn       0.00000000       0.00000000       1.70909091       0.00000000       0.00000000      32.88919449
2
Properties=species:S:1:pos:R:3:forces:R:3 energy=8.00118178946234 pbc="F F F"
Sn       0.00000000       0.00000000       0.00000000       0.00000000       0.00000000     -31.69232178
Sn       0.00000000       0.00000000       1.76868687       0.00000000       0.00000000      31.69232178
2
Properties=species:S:1:pos:R:3:forces:R:3 energy=6.13461045737149 pbc="F F F"
Sn       0.00000000       0.00000000       0.00000000       0.00000000       0.00000000     -30.61701202
Sn       0.00000000       0.00000000       1.82828283       0.00000000       0.00000000      30.61701202
2
Properties=species:S:1:pos:R:3:forces:R:3 energy=4.384274213101586 pbc="F F F"
Sn       0.00000000       0.00000000       0.00000000       0.00000000       0.00000000     -28.08697510
Sn       0.00000000       0.00000000       1.88787879       0.00000000       0.00000000      28.08697510
2
Properties=species:S:1:pos:R:3:forces:R:3 energy=2.7886365208052015 pbc="F F F"
Sn       0.00000000       0.00000000       0.00000000       0.00000000       0.00000000     -25.35308456
Sn       0.00000000       0.00000000       1.94747475       0.00000000       0.00000000      25.35308456
2
Properties=species:S:1:pos:R:3:forces:R:3 energy=1.3707538447474086 pbc="F F F"
Sn       0.00000000       0.00000000       0.00000000       0.00000000       0.00000000     -22.16966438
Sn       0.00000000       0.00000000       2.00707071       0.00000000       0.00000000      22.16966438
2
Properties=species:S:1:pos:R:3:forces:R:3 energy=0.16092493114762185 pbc="F F F"
Sn       0.00000000       0.00000000       0.00000000       0.00000000       0.00000000     -18.43839073
Sn       0.00000000       0.00000000       2.06666667       0.00000000       0.00000000      18.43839073
2
Properties=species:S:1:pos:R:3:forces:R:3 energy=-0.8461177942273324 pbc="F F F"
Sn       0.00000000       0.00000000       0.00000000       0.00000000       0.00000000     -15.48494148
Sn       0.00000000       0.00000000       2.12626263       0.00000000       0.00000000      15.48494148
2
Properties=species:S:1:pos:R:3:forces:R:3 energy=-1.693116010351499 pbc="F F F"
Sn       0.00000000       0.00000000       0.00000000       0.00000000       0.00000000     -12.99605560
Sn       0.00000000       0.00000000       2.18585859       0.00000000       0.00000000      12.99605560
2
Properties=species:S:1:pos:R:3:forces:R:3 energy=-2.3973324993038565 pbc="F F F"
Sn       0.00000000       0.00000000       0.00000000       0.00000000       0.00000000     -10.63992977
Sn       0.00000000       0.00000000       2.24545455       0.00000000       0.00000000      10.63992977
2
Properties=species:S:1:pos:R:3:forces:R:3 energy=-2.9646846471547894 pbc="F F F"
Sn       0.00000000       0.00000000       0.00000000       0.00000000       0.00000000      -8.43761730
Sn       0.00000000       0.00000000       2.30505051       0.00000000       0.00000000       8.43761730
2
Properties=species:S:1:pos:R:3:forces:R:3 energy=-3.4078914230245383 pbc="F F F"
Sn       0.00000000       0.00000000       0.00000000       0.00000000       0.00000000      -6.49077082
Sn       0.00000000       0.00000000       2.36464646       0.00000000       0.00000000       6.49077082
2
Properties=species:S:1:pos:R:3:forces:R:3 energy=-3.745400549330215 pbc="F F F"
Sn       0.00000000       0.00000000       0.00000000       0.00000000       0.00000000      -4.88416147
Sn       0.00000000       0.00000000       2.42424242       0.00000000       0.00000000       4.88416147
2
Properties=species:S:1:pos:R:3:forces:R:3 energy=-3.994832429683808 pbc="F F F"
Sn       0.00000000       0.00000000       0.00000000       0.00000000       0.00000000      -3.52637911
Sn       0.00000000       0.00000000       2.48383838       0.00000000       0.00000000       3.52637911
2
Properties=species:S:1:pos:R:3:forces:R:3 energy=-4.1706943436112125 pbc="F F F"
Sn       0.00000000       0.00000000       0.00000000       0.00000000       0.00000000      -2.42002916
Sn       0.00000000       0.00000000       2.54343434       0.00000000       0.00000000       2.42002916
2
Properties=species:S:1:pos:R:3:forces:R:3 energy=-4.288718660332415 pbc="F F F"
Sn       0.00000000       0.00000000       0.00000000       0.00000000       0.00000000      -1.58241153
Sn       0.00000000       0.00000000       2.60303030       0.00000000       0.00000000       1.58241153
2
Properties=species:S:1:pos:R:3:forces:R:3 energy=-4.363130713900447 pbc="F F F"
Sn       0.00000000       0.00000000       0.00000000       0.00000000       0.00000000      -0.93706328
Sn       0.00000000       0.00000000       2.66262626       0.00000000       0.00000000       0.93706328
2
Properties=species:S:1:pos:R:3:forces:R:3 energy=-4.4021780540338105 pbc="F F F"
Sn       0.00000000       0.00000000       0.00000000       0.00000000       0.00000000      -0.38343126
Sn       0.00000000       0.00000000       2.72222222       0.00000000       0.00000000       0.38343126
2
Properties=species:S:1:pos:R:3:forces:R:3 energy=-4.409987398898153 pbc="F F F"
Sn       0.00000000       0.00000000       0.00000000       0.00000000       0.00000000       0.10989366
Sn       0.00000000       0.00000000       2.78181818       0.00000000       0.00000000      -0.10989366
2
Properties=species:S:1:pos:R:3:forces:R:3 energy=-4.390786438767394 pbc="F F F"
Sn       0.00000000       0.00000000       0.00000000       0.00000000       0.00000000       0.51775062
Sn       0.00000000       0.00000000       2.84141414       0.00000000       0.00000000      -0.51775062
2
Properties=species:S:1:pos:R:3:forces:R:3 energy=-4.350384692504459 pbc="F F F"
Sn       0.00000000       0.00000000       0.00000000       0.00000000       0.00000000       0.82062829
Sn       0.00000000       0.00000000       2.90101010       0.00000000       0.00000000      -0.82062829
2
Properties=species:S:1:pos:R:3:forces:R:3 energy=-4.294862951318404 pbc="F F F"
Sn       0.00000000       0.00000000       0.00000000       0.00000000       0.00000000       1.02910435
Sn       0.00000000       0.00000000       2.96060606       0.00000000       0.00000000      -1.02910435
2
Properties=species:S:1:pos:R:3:forces:R:3 energy=-4.229012062743764 pbc="F F F"
Sn       0.00000000       0.00000000       0.00000000       0.00000000       0.00000000       1.17240334
Sn       0.00000000       0.00000000       3.02020202       0.00000000       0.00000000      -1.17240334
2
Properties=species:S:1:pos:R:3:forces:R:3 energy=-4.155937318222754 pbc="F F F"
Sn       0.00000000       0.00000000       0.00000000       0.00000000       0.00000000       1.27395582
Sn       0.00000000       0.00000000       3.07979798       0.00000000       0.00000000      -1.27395582
2
Properties=species:S:1:pos:R:3:forces:R:3 energy=-4.077848245031634 pbc="F F F"
Sn       0.00000000       0.00000000       0.00000000       0.00000000       0.00000000       1.34115446
Sn       0.00000000       0.00000000       3.13939394       0.00000000       0.00000000      -1.34115446
2
Properties=species:S:1:pos:R:3:forces:R:3 energy=-3.996709126046245 pbc="F F F"
Sn       0.00000000       0.00000000       0.00000000       0.00000000       0.00000000       1.37688684
Sn       0.00000000       0.00000000       3.19898990       0.00000000       0.00000000      -1.37688684
2
Properties=species:S:1:pos:R:3:forces:R:3 energy=-3.9142751257059802 pbc="F F F"
Sn       0.00000000       0.00000000       0.00000000       0.00000000       0.00000000       1.38534093
Sn       0.00000000       0.00000000       3.25858586       0.00000000       0.00000000      -1.38534093
2
Properties=species:S:1:pos:R:3:forces:R:3 energy=-3.832042477354641 pbc="F F F"
Sn       0.00000000       0.00000000       0.00000000       0.00000000       0.00000000       1.37098336
Sn       0.00000000       0.00000000       3.31818182       0.00000000       0.00000000      -1.37098336
2
Properties=species:S:1:pos:R:3:forces:R:3 energy=-3.7512127789387044 pbc="F F F"
Sn       0.00000000       0.00000000       0.00000000       0.00000000       0.00000000       1.33920932
Sn       0.00000000       0.00000000       3.37777778       0.00000000       0.00000000      -1.33920932
2
Properties=species:S:1:pos:R:3:forces:R:3 energy=-3.6726570565059506 pbc="F F F"
Sn       0.00000000       0.00000000       0.00000000       0.00000000       0.00000000       1.29547274
Sn       0.00000000       0.00000000       3.43737374       0.00000000       0.00000000      -1.29547274
2
Properties=species:S:1:pos:R:3:forces:R:3 energy=-3.596950247464009 pbc="F F F"
Sn       0.00000000       0.00000000       0.00000000       0.00000000       0.00000000       1.24420106
Sn       0.00000000       0.00000000       3.49696970       0.00000000       0.00000000      -1.24420106
2
Properties=species:S:1:pos:R:3:forces:R:3 energy=-3.5244433458407554 pbc="F F F"
Sn       0.00000000       0.00000000       0.00000000       0.00000000       0.00000000       1.18859279
Sn       0.00000000       0.00000000       3.55656566       0.00000000       0.00000000      -1.18859279
2
Properties=species:S:1:pos:R:3:forces:R:3 energy=-3.4553312750359115 pbc="F F F"
Sn       0.00000000       0.00000000       0.00000000       0.00000000       0.00000000       1.13039076
Sn       0.00000000       0.00000000       3.61616162       0.00000000       0.00000000      -1.13039076
2
Properties=species:S:1:pos:R:3:forces:R:3 energy=-3.389747710699991 pbc="F F F"
Sn       0.00000000       0.00000000       0.00000000       0.00000000       0.00000000       1.07033908
Sn       0.00000000       0.00000000       3.67575758       0.00000000       0.00000000      -1.07033908
2
Properties=species:S:1:pos:R:3:forces:R:3 energy=-3.3277771978722153 pbc="F F F"
Sn       0.00000000       0.00000000       0.00000000       0.00000000       0.00000000       1.00919700
Sn       0.00000000       0.00000000       3.73535354       0.00000000       0.00000000      -1.00919700
2
Properties=species:S:1:pos:R:3:forces:R:3 energy=-3.269454019363268 pbc="F F F"
Sn       0.00000000       0.00000000       0.00000000       0.00000000       0.00000000       0.94819939
Sn       0.00000000       0.00000000       3.79494949       0.00000000       0.00000000      -0.94819939
2
Properties=species:S:1:pos:R:3:forces:R:3 energy=-3.21473036772324 pbc="F F F"
Sn       0.00000000       0.00000000       0.00000000       0.00000000       0.00000000       0.88866001
Sn       0.00000000       0.00000000       3.85454545       0.00000000       0.00000000      -0.88866001
2
Properties=species:S:1:pos:R:3:forces:R:3 energy=-3.1634879835950134 pbc="F F F"
Sn       0.00000000       0.00000000       0.00000000       0.00000000       0.00000000       0.83135325
Sn       0.00000000       0.00000000       3.91414141       0.00000000       0.00000000      -0.83135325
2
Properties=species:S:1:pos:R:3:forces:R:3 energy=-3.115593802630223 pbc="F F F"
Sn       0.00000000       0.00000000       0.00000000       0.00000000       0.00000000       0.77631652
Sn       0.00000000       0.00000000       3.97373737       0.00000000       0.00000000      -0.77631652
2
Properties=species:S:1:pos:R:3:forces:R:3 energy=-3.07092087898372 pbc="F F F"
Sn       0.00000000       0.00000000       0.00000000       0.00000000       0.00000000       0.72319347
Sn       0.00000000       0.00000000       4.03333333       0.00000000       0.00000000      -0.72319347
2
Properties=species:S:1:pos:R:3:forces:R:3 energy=-3.0293619646773484 pbc="F F F"
Sn       0.00000000       0.00000000       0.00000000       0.00000000       0.00000000       0.67177135
Sn       0.00000000       0.00000000       4.09292929       0.00000000       0.00000000      -0.67177135
2
Properties=species:S:1:pos:R:3:forces:R:3 energy=-2.990811540179557 pbc="F F F"
Sn       0.00000000       0.00000000       0.00000000       0.00000000       0.00000000       0.62230909
Sn       0.00000000       0.00000000       4.15252525       0.00000000       0.00000000      -0.62230909
2
Properties=species:S:1:pos:R:3:forces:R:3 energy=-2.9551353743589934 pbc="F F F"
Sn       0.00000000       0.00000000       0.00000000       0.00000000       0.00000000       0.57550424
Sn       0.00000000       0.00000000       4.21212121       0.00000000       0.00000000      -0.57550424
2
Properties=species:S:1:pos:R:3:forces:R:3 energy=-2.922146764989972 pbc="F F F"
Sn       0.00000000       0.00000000       0.00000000       0.00000000       0.00000000       0.53222537
Sn       0.00000000       0.00000000       4.27171717       0.00000000       0.00000000      -0.53222537
2
Properties=species:S:1:pos:R:3:forces:R:3 energy=-2.8916120658973807 pbc="F F F"
Sn       0.00000000       0.00000000       0.00000000       0.00000000       0.00000000       0.49323294
Sn       0.00000000       0.00000000       4.33131313       0.00000000       0.00000000      -0.49323294
2
Properties=species:S:1:pos:R:3:forces:R:3 energy=-2.863261171038522 pbc="F F F"
Sn       0.00000000       0.00000000       0.00000000       0.00000000       0.00000000       0.45895976
Sn       0.00000000       0.00000000       4.39090909       0.00000000       0.00000000      -0.45895976
2
Properties=species:S:1:pos:R:3:forces:R:3 energy=-2.8368147100602386 pbc="F F F"
Sn       0.00000000       0.00000000       0.00000000       0.00000000       0.00000000       0.42940018
Sn       0.00000000       0.00000000       4.45050505       0.00000000       0.00000000      -0.42940018
2
Properties=species:S:1:pos:R:3:forces:R:3 energy=-2.811997895583433 pbc="F F F"
Sn       0.00000000       0.00000000       0.00000000       0.00000000       0.00000000       0.40407673
Sn       0.00000000       0.00000000       4.51010101       0.00000000       0.00000000      -0.40407673
2
Properties=species:S:1:pos:R:3:forces:R:3 energy=-2.7885832896596683 pbc="F F F"
Sn       0.00000000       0.00000000       0.00000000       0.00000000       0.00000000       0.38214144
Sn       0.00000000       0.00000000       4.56969697       0.00000000       0.00000000      -0.38214144
2
Properties=species:S:1:pos:R:3:forces:R:3 energy=-2.7664018565570023 pbc="F F F"
Sn       0.00000000       0.00000000       0.00000000       0.00000000       0.00000000       0.36257637
Sn       0.00000000       0.00000000       4.62929293       0.00000000       0.00000000      -0.36257637
2
Properties=species:S:1:pos:R:3:forces:R:3 energy=-2.745338916811706 pbc="F F F"
Sn       0.00000000       0.00000000       0.00000000       0.00000000       0.00000000       0.34446371
Sn       0.00000000       0.00000000       4.68888889       0.00000000       0.00000000      -0.34446371
2
Properties=species:S:1:pos:R:3:forces:R:3 energy=-2.725328466364053 pbc="F F F"
Sn       0.00000000       0.00000000       0.00000000       0.00000000       0.00000000       0.32722229
Sn       0.00000000       0.00000000       4.74848485       0.00000000       0.00000000      -0.32722229
2
Properties=species:S:1:pos:R:3:forces:R:3 energy=-2.7063229204054458 pbc="F F F"
Sn       0.00000000       0.00000000       0.00000000       0.00000000       0.00000000       0.31072110
Sn       0.00000000       0.00000000       4.80808081       0.00000000       0.00000000      -0.31072110
2
Properties=species:S:1:pos:R:3:forces:R:3 energy=-2.688272183228611 pbc="F F F"
Sn       0.00000000       0.00000000       0.00000000       0.00000000       0.00000000       0.29523242
Sn       0.00000000       0.00000000       4.86767677       0.00000000       0.00000000      -0.29523242
2
Properties=species:S:1:pos:R:3:forces:R:3 energy=-2.6711048963551423 pbc="F F F"
Sn       0.00000000       0.00000000       0.00000000       0.00000000       0.00000000       0.28120807
Sn       0.00000000       0.00000000       4.92727273       0.00000000       0.00000000      -0.28120807
2
Properties=species:S:1:pos:R:3:forces:R:3 energy=-2.6547164447466374 pbc="F F F"
Sn       0.00000000       0.00000000       0.00000000       0.00000000       0.00000000       0.26899508
Sn       0.00000000       0.00000000       4.98686869       0.00000000       0.00000000      -0.26899508
2
Properties=species:S:1:pos:R:3:forces:R:3 energy=-2.6390076075409996 pbc="F F F"
Sn       0.00000000       0.00000000       0.00000000       0.00000000       0.00000000       0.25855792
Sn       0.00000000       0.00000000       5.04646465       0.00000000       0.00000000      -0.25855792
2
Properties=species:S:1:pos:R:3:forces:R:3 energy=-2.623876746508134 pbc="F F F"
Sn       0.00000000       0.00000000       0.00000000       0.00000000       0.00000000       0.24933128
Sn       0.00000000       0.00000000       5.10606061       0.00000000       0.00000000      -0.24933128
2
Properties=species:S:1:pos:R:3:forces:R:3 energy=-2.6092838067672774 pbc="F F F"
Sn       0.00000000       0.00000000       0.00000000       0.00000000       0.00000000       0.24024634
Sn       0.00000000       0.00000000       5.16565657       0.00000000       0.00000000      -0.24024634
2
Properties=species:S:1:pos:R:3:forces:R:3 energy=-2.595265035382458 pbc="F F F"
Sn       0.00000000       0.00000000       0.00000000       0.00000000       0.00000000       0.22992632
Sn       0.00000000       0.00000000       5.22525253       0.00000000       0.00000000      -0.22992632
2
Properties=species:S:1:pos:R:3:forces:R:3 energy=-2.581930567082397 pbc="F F F"
Sn       0.00000000       0.00000000       0.00000000       0.00000000       0.00000000       0.21700393
Sn       0.00000000       0.00000000       5.28484848       0.00000000       0.00000000      -0.21700393
2
Properties=species:S:1:pos:R:3:forces:R:3 energy=-2.5694725906808165 pbc="F F F"
Sn       0.00000000       0.00000000       0.00000000       0.00000000       0.00000000       0.20047691
Sn       0.00000000       0.00000000       5.34444444       0.00000000       0.00000000      -0.20047691
2
Properties=species:S:1:pos:R:3:forces:R:3 energy=-2.5581152447448745 pbc="F F F"
Sn       0.00000000       0.00000000       0.00000000       0.00000000       0.00000000       0.17996064
Sn       0.00000000       0.00000000       5.40404040       0.00000000       0.00000000      -0.17996064
2
Properties=species:S:1:pos:R:3:forces:R:3 energy=-2.5480913206825884 pbc="F F F"
Sn       0.00000000       0.00000000       0.00000000       0.00000000       0.00000000       0.15587105
Sn       0.00000000       0.00000000       5.46363636       0.00000000       0.00000000      -0.15587105
2
Properties=species:S:1:pos:R:3:forces:R:3 energy=-2.5395874438926644 pbc="F F F"
Sn       0.00000000       0.00000000       0.00000000       0.00000000       0.00000000       0.12935407
Sn       0.00000000       0.00000000       5.52323232       0.00000000       0.00000000      -0.12935407
2
Properties=species:S:1:pos:R:3:forces:R:3 energy=-2.532690706016644 pbc="F F F"
Sn       0.00000000       0.00000000       0.00000000       0.00000000       0.00000000       0.10212819
Sn       0.00000000       0.00000000       5.58282828       0.00000000       0.00000000      -0.10212819
2
Properties=species:S:1:pos:R:3:forces:R:3 energy=-2.527389631284508 pbc="F F F"
Sn       0.00000000       0.00000000       0.00000000       0.00000000       0.00000000       0.07618966
Sn       0.00000000       0.00000000       5.64242424       0.00000000       0.00000000      -0.07618966
2
Properties=species:S:1:pos:R:3:forces:R:3 energy=-2.5235451638918494 pbc="F F F"
Sn       0.00000000       0.00000000       0.00000000       0.00000000       0.00000000       0.05340922
Sn       0.00000000       0.00000000       5.70202020       0.00000000       0.00000000      -0.05340922
2
Properties=species:S:1:pos:R:3:forces:R:3 energy=-2.5209293250718177 pbc="F F F"
Sn       0.00000000       0.00000000       0.00000000       0.00000000       0.00000000       0.03526214
Sn       0.00000000       0.00000000       5.76161616       0.00000000       0.00000000      -0.03526214
2
Properties=species:S:1:pos:R:3:forces:R:3 energy=-2.519236657186916 pbc="F F F"
Sn       0.00000000       0.00000000       0.00000000       0.00000000       0.00000000       0.02246299
Sn       0.00000000       0.00000000       5.82121212       0.00000000       0.00000000      -0.02246299
2
Properties=species:S:1:pos:R:3:forces:R:3 energy=-2.518147245429439 pbc="F F F"
Sn       0.00000000       0.00000000       0.00000000       0.00000000       0.00000000       0.01490183
Sn       0.00000000       0.00000000       5.88080808       0.00000000       0.00000000      -0.01490183
2
Properties=species:S:1:pos:R:3:forces:R:3 energy=-2.5173782154426028 pbc="F F F"
Sn       0.00000000       0.00000000       0.00000000       0.00000000       0.00000000       0.01151830
Sn       0.00000000       0.00000000       5.94040404       0.00000000       0.00000000      -0.01151830
2
Properties=species:S:1:pos:R:3:forces:R:3 energy=-2.5167271896503394 pbc="F F F"
Sn       0.00000000       0.00000000       0.00000000       0.00000000       0.00000000       0.01052490
Sn       0.00000000       0.00000000       6.00000000       0.00000000       0.00000000      -0.01052490
