2
Properties=species:S:1:pos:R:3:forces:R:3 energy=-59331388.0916397 pbc="F F F"
Sr       0.00000000       0.00000000       0.00000000       0.00000000       0.00000000 653171776.00000000
Sr       0.00000000       0.00000000       0.18000000       0.00000000       0.00000000 -653171776.00000000
2
Properties=species:S:1:pos:R:3:forces:R:3 energy=-27020020.091639698 pbc="F F F"
Sr       0.00000000       0.00000000       0.00000000       0.00000000       0.00000000 431900768.00000000
Sr       0.00000000       0.00000000       0.23878788       0.00000000       0.00000000 -431900768.00000000
2
Properties=species:S:1:pos:R:3:forces:R:3 energy=-8741258.091639698 pbc="F F F"
Sr       0.00000000       0.00000000       0.00000000       0.00000000       0.00000000 199397520.00000000
Sr       0.00000000       0.00000000       0.29757576       0.00000000       0.00000000 -199397520.00000000
2
Properties=species:S:1:pos:R:3:forces:R:3 energy=-1737647.3416396969 pbc="F F F"
Sr       0.00000000       0.00000000       0.00000000       0.00000000       0.00000000 55755692.00000000
Sr       0.00000000       0.00000000       0.35636364       0.00000000       0.00000000 -55755692.00000000
2
Properties=species:S:1:pos:R:3:forces:R:3 energy=-177611.96663969677 pbc="F F F"
Sr       0.00000000       0.00000000       0.00000000       0.00000000       0.00000000 9099778.00000000
Sr       0.00000000       0.00000000       0.41515152       0.00000000       0.00000000 -9099778.00000000
2
Properties=species:S:1:pos:R:3:forces:R:3 energy=-137.38331143702973 pbc="F F F"
Sr       0.00000000       0.00000000       0.00000000       0.00000000       0.00000000   74873.62500000
Sr       0.00000000       0.00000000       0.47393939       0.00000000       0.00000000  -74873.62500000
2
Properties=species:S:1:pos:R:3:forces:R:3 energy=1151.6334579848212 pbc="F F F"
Sr       0.00000000       0.00000000       0.00000000       0.00000000       0.00000000     901.33331299
Sr       0.00000000       0.00000000       0.53272727       0.00000000       0.00000000    -901.33331299
2
Properties=species:S:1:pos:R:3:forces:R:3 energy=881.8700912982738 pbc="F F F"
Sr       0.00000000       0.00000000       0.00000000       0.00000000       0.00000000   -7651.72216797
Sr       0.00000000       0.00000000       0.59151515       0.00000000       0.00000000    7651.72216797
2
Properties=species:S:1:pos:R:3:forces:R:3 energy=422.0771836214439 pbc="F F F"
Sr       0.00000000       0.00000000       0.00000000       0.00000000       0.00000000   -6543.26660156
Sr       0.00000000       0.00000000       0.65030303       0.00000000       0.00000000    6543.26660156
2
Properties=species:S:1:pos:R:3:forces:R:3 energy=194.0609483269022 pbc="F F F"
Sr       0.00000000       0.00000000       0.00000000       0.00000000       0.00000000   -2288.60009766
Sr       0.00000000       0.00000000       0.70909091       0.00000000       0.00000000    2288.60009766
2
Properties=species:S:1:pos:R:3:forces:R:3 energy=102.64418510360152 pbc="F F F"
Sr       0.00000000       0.00000000       0.00000000       0.00000000       0.00000000    -848.87030029
Sr       0.00000000       0.00000000       0.76787879       0.00000000       0.00000000     848.87030029
2
Properties=species:S:1:pos:R:3:forces:R:3 energy=74.00232425572905 pbc="F F F"
Sr       0.00000000       0.00000000       0.00000000       0.00000000       0.00000000    -239.98828125
Sr       0.00000000       0.00000000       0.82666667       0.00000000       0.00000000     239.98828125
2
Properties=species:S:1:pos:R:3:forces:R:3 energy=62.68682226004341 pbc="F F F"
Sr       0.00000000       0.00000000       0.00000000       0.00000000       0.00000000     -98.48082733
Sr       0.00000000       0.00000000       0.88545455       0.00000000       0.00000000      98.48082733
2
Properties=species:S:1:pos:R:3:forces:R:3 energy=58.25499114727025 pbc="F F F"
Sr       0.00000000       0.00000000       0.00000000       0.00000000       0.00000000     -65.61427307
Sr       0.00000000       0.00000000       0.94424242       0.00000000       0.00000000      65.61427307
2
Properties=species:S:1:pos:R:3:forces:R:3 energy=60.825235299501685 pbc="F F F"
Sr       0.00000000       0.00000000       0.00000000       0.00000000       0.00000000     118.19751740
Sr       0.00000000       0.00000000       1.00303030       0.00000000       0.00000000    -118.19751740
2
Properties=species:S:1:pos:R:3:forces:R:3 energy=65.24652709431514 pbc="F F F"
Sr       0.00000000       0.00000000       0.00000000       0.00000000       0.00000000      20.69475555
Sr       0.00000000       0.00000000       1.06181818       0.00000000       0.00000000     -20.69475555
2
Properties=species:S:1:pos:R:3:forces:R:3 energy=62.38068676532919 pbc="F F F"
Sr       0.00000000       0.00000000       0.00000000       0.00000000       0.00000000    -107.24918365
Sr       0.00000000       0.00000000       1.12060606       0.00000000       0.00000000     107.24918365
2
Properties=species:S:1:pos:R:3:forces:R:3 energy=62.406070540218906 pbc="F F F"
Sr       0.00000000       0.00000000       0.00000000       0.00000000       0.00000000      10.75196457
Sr       0.00000000       0.00000000       1.17939394       0.00000000       0.00000000     -10.75196457
2
Properties=species:S:1:pos:R:3:forces:R:3 energy=60.8011749895049 pbc="F F F"
Sr       0.00000000       0.00000000       0.00000000       0.00000000       0.00000000     -61.50792313
Sr       0.00000000       0.00000000       1.23818182       0.00000000       0.00000000      61.50792313
2
Properties=species:S:1:pos:R:3:forces:R:3 energy=55.095525927043916 pbc="F F F"
Sr       0.00000000       0.00000000       0.00000000       0.00000000       0.00000000    -127.22900391
Sr       0.00000000       0.00000000       1.29696970       0.00000000       0.00000000     127.22900391
2
Properties=species:S:1:pos:R:3:forces:R:3 energy=47.54992665151993 pbc="F F F"
Sr       0.00000000       0.00000000       0.00000000       0.00000000       0.00000000    -125.80554962
Sr       0.00000000       0.00000000       1.35575758       0.00000000       0.00000000     125.80554962
2
Properties=species:S:1:pos:R:3:forces:R:3 energy=40.19540215281507 pbc="F F F"
Sr       0.00000000       0.00000000       0.00000000       0.00000000       0.00000000    -122.35955048
Sr       0.00000000       0.00000000       1.41454545       0.00000000       0.00000000     122.35955048
2
Properties=species:S:1:pos:R:3:forces:R:3 energy=33.554619431773766 pbc="F F F"
Sr       0.00000000       0.00000000       0.00000000       0.00000000       0.00000000    -101.54898834
Sr       0.00000000       0.00000000       1.47333333       0.00000000       0.00000000     101.54898834
2
Properties=species:S:1:pos:R:3:forces:R:3 energy=28.340537898324044 pbc="F F F"
Sr       0.00000000       0.00000000       0.00000000       0.00000000       0.00000000     -77.11518860
Sr       0.00000000       0.00000000       1.53212121       0.00000000       0.00000000      77.11518860
2
Properties=species:S:1:pos:R:3:forces:R:3 energy=24.267185045950075 pbc="F F F"
Sr       0.00000000       0.00000000       0.00000000       0.00000000       0.00000000     -63.03073120
Sr       0.00000000       0.00000000       1.59090909       0.00000000       0.00000000      63.03073120
2
Properties=species:S:1:pos:R:3:forces:R:3 energy=20.904583578036917 pbc="F F F"
Sr       0.00000000       0.00000000       0.00000000       0.00000000       0.00000000     -50.84275055
Sr       0.00000000       0.00000000       1.64969697       0.00000000       0.00000000      50.84275055
2
Properties=species:S:1:pos:R:3:forces:R:3 energy=18.184772901168643 pbc="F F F"
Sr       0.00000000       0.00000000       0.00000000       0.00000000       0.00000000     -42.58120346
Sr       0.00000000       0.00000000       1.70848485       0.00000000       0.00000000      42.58120346
2
Properties=species:S:1:pos:R:3:forces:R:3 energy=15.938065896282557 pbc="F F F"
Sr       0.00000000       0.00000000       0.00000000       0.00000000       0.00000000     -33.87836838
Sr       0.00000000       0.00000000       1.76727273       0.00000000       0.00000000      33.87836838
2
Properties=species:S:1:pos:R:3:forces:R:3 energy=14.1800762966849 pbc="F F F"
Sr       0.00000000       0.00000000       0.00000000       0.00000000       0.00000000     -25.76818657
Sr       0.00000000       0.00000000       1.82606061       0.00000000       0.00000000      25.76818657
2
Properties=species:S:1:pos:R:3:forces:R:3 energy=12.80234101142713 pbc="F F F"
Sr       0.00000000       0.00000000       0.00000000       0.00000000       0.00000000     -21.59111404
Sr       0.00000000       0.00000000       1.88484848       0.00000000       0.00000000      21.59111404
2
Properties=species:S:1:pos:R:3:forces:R:3 energy=11.578618209498398 pbc="F F F"
Sr       0.00000000       0.00000000       0.00000000       0.00000000       0.00000000     -20.51872444
Sr       0.00000000       0.00000000       1.94363636       0.00000000       0.00000000      20.51872444
2
Properties=species:S:1:pos:R:3:forces:R:3 energy=10.372732976013538 pbc="F F F"
Sr       0.00000000       0.00000000       0.00000000       0.00000000       0.00000000     -20.41167831
Sr       0.00000000       0.00000000       2.00242424       0.00000000       0.00000000      20.41167831
2
Properties=species:S:1:pos:R:3:forces:R:3 energy=9.179892416290997 pbc="F F F"
Sr       0.00000000       0.00000000       0.00000000       0.00000000       0.00000000     -20.23161507
Sr       0.00000000       0.00000000       2.06121212       0.00000000       0.00000000      20.23161507
2
Properties=species:S:1:pos:R:3:forces:R:3 energy=8.009639305987308 pbc="F F F"
Sr       0.00000000       0.00000000       0.00000000       0.00000000       0.00000000     -19.32878685
Sr       0.00000000       0.00000000       2.12000000       0.00000000       0.00000000      19.32878685
2
Properties=species:S:1:pos:R:3:forces:R:3 energy=6.918467765389469 pbc="F F F"
Sr       0.00000000       0.00000000       0.00000000       0.00000000       0.00000000     -17.83796692
Sr       0.00000000       0.00000000       2.17878788       0.00000000       0.00000000      17.83796692
2
Properties=species:S:1:pos:R:3:forces:R:3 energy=5.917563763672467 pbc="F F F"
Sr       0.00000000       0.00000000       0.00000000       0.00000000       0.00000000     -16.08442116
Sr       0.00000000       0.00000000       2.23757576       0.00000000       0.00000000      16.08442116
2
Properties=species:S:1:pos:R:3:forces:R:3 energy=5.035103136349175 pbc="F F F"
Sr       0.00000000       0.00000000       0.00000000       0.00000000       0.00000000     -13.93057728
Sr       0.00000000       0.00000000       2.29636364       0.00000000       0.00000000      13.93057728
2
Properties=species:S:1:pos:R:3:forces:R:3 energy=4.276299085385594 pbc="F F F"
Sr       0.00000000       0.00000000       0.00000000       0.00000000       0.00000000     -11.95257568
Sr       0.00000000       0.00000000       2.35515152       0.00000000       0.00000000      11.95257568
2
Properties=species:S:1:pos:R:3:forces:R:3 energy=3.621635185419301 pbc="F F F"
Sr       0.00000000       0.00000000       0.00000000       0.00000000       0.00000000     -10.36330128
Sr       0.00000000       0.00000000       2.41393939       0.00000000       0.00000000      10.36330128
2
Properties=species:S:1:pos:R:3:forces:R:3 energy=3.0542309732340662 pbc="F F F"
Sr       0.00000000       0.00000000       0.00000000       0.00000000       0.00000000      -8.96446800
Sr       0.00000000       0.00000000       2.47272727       0.00000000       0.00000000       8.96446800
2
Properties=species:S:1:pos:R:3:forces:R:3 energy=2.566495771479283 pbc="F F F"
Sr       0.00000000       0.00000000       0.00000000       0.00000000       0.00000000      -7.63509607
Sr       0.00000000       0.00000000       2.53151515       0.00000000       0.00000000       7.63509607
2
Properties=species:S:1:pos:R:3:forces:R:3 energy=2.152776832371724 pbc="F F F"
Sr       0.00000000       0.00000000       0.00000000       0.00000000       0.00000000      -6.49589729
Sr       0.00000000       0.00000000       2.59030303       0.00000000       0.00000000       6.49589729
2
Properties=species:S:1:pos:R:3:forces:R:3 energy=1.795997406848375 pbc="F F F"
Sr       0.00000000       0.00000000       0.00000000       0.00000000       0.00000000      -5.68892145
Sr       0.00000000       0.00000000       2.64909091       0.00000000       0.00000000       5.68892145
2
Properties=species:S:1:pos:R:3:forces:R:3 energy=1.4801974604568682 pbc="F F F"
Sr       0.00000000       0.00000000       0.00000000       0.00000000       0.00000000      -5.07213020
Sr       0.00000000       0.00000000       2.70787879       0.00000000       0.00000000       5.07213020
2
Properties=species:S:1:pos:R:3:forces:R:3 energy=1.1985980510809655 pbc="F F F"
Sr       0.00000000       0.00000000       0.00000000       0.00000000       0.00000000      -4.51295328
Sr       0.00000000       0.00000000       2.76666667       0.00000000       0.00000000       4.51295328
2
Properties=species:S:1:pos:R:3:forces:R:3 energy=0.9489482632517927 pbc="F F F"
Sr       0.00000000       0.00000000       0.00000000       0.00000000       0.00000000      -3.98720837
Sr       0.00000000       0.00000000       2.82545455       0.00000000       0.00000000       3.98720837
2
Properties=species:S:1:pos:R:3:forces:R:3 energy=0.7287759037164925 pbc="F F F"
Sr       0.00000000       0.00000000       0.00000000       0.00000000       0.00000000      -3.51348972
Sr       0.00000000       0.00000000       2.88424242       0.00000000       0.00000000       3.51348972
2
Properties=species:S:1:pos:R:3:forces:R:3 energy=0.5345597057959389 pbc="F F F"
Sr       0.00000000       0.00000000       0.00000000       0.00000000       0.00000000      -3.10466075
Sr       0.00000000       0.00000000       2.94303030       0.00000000       0.00000000       3.10466075
2
Properties=species:S:1:pos:R:3:forces:R:3 energy=0.3625769621183387 pbc="F F F"
Sr       0.00000000       0.00000000       0.00000000       0.00000000       0.00000000      -2.75475359
Sr       0.00000000       0.00000000       3.00181818       0.00000000       0.00000000       2.75475359
2
Properties=species:S:1:pos:R:3:forces:R:3 energy=0.20984876158660754 pbc="F F F"
Sr       0.00000000       0.00000000       0.00000000       0.00000000       0.00000000      -2.44701433
Sr       0.00000000       0.00000000       3.06060606       0.00000000       0.00000000       2.44701433
2
Properties=species:S:1:pos:R:3:forces:R:3 energy=0.07423804677056517 pbc="F F F"
Sr       0.00000000       0.00000000       0.00000000       0.00000000       0.00000000      -2.17177916
Sr       0.00000000       0.00000000       3.11939394       0.00000000       0.00000000       2.17177916
2
Properties=species:S:1:pos:R:3:forces:R:3 energy=-0.046121915776941885 pbc="F F F"
Sr       0.00000000       0.00000000       0.00000000       0.00000000       0.00000000      -1.92825949
Sr       0.00000000       0.00000000       3.17818182       0.00000000       0.00000000       1.92825949
2
Properties=species:S:1:pos:R:3:forces:R:3 energy=-0.15308390918440146 pbc="F F F"
Sr       0.00000000       0.00000000       0.00000000       0.00000000       0.00000000      -1.71531320
Sr       0.00000000       0.00000000       3.23696970       0.00000000       0.00000000       1.71531320
2
Properties=species:S:1:pos:R:3:forces:R:3 energy=-0.24828098802119813 pbc="F F F"
Sr       0.00000000       0.00000000       0.00000000       0.00000000       0.00000000      -1.52688718
Sr       0.00000000       0.00000000       3.29575758       0.00000000       0.00000000       1.52688718
2
Properties=species:S:1:pos:R:3:forces:R:3 energy=-0.3329493609718223 pbc="F F F"
Sr       0.00000000       0.00000000       0.00000000       0.00000000       0.00000000      -1.35611880
Sr       0.00000000       0.00000000       3.35454545       0.00000000       0.00000000       1.35611880
2
Properties=species:S:1:pos:R:3:forces:R:3 energy=-0.4079989247214182 pbc="F F F"
Sr       0.00000000       0.00000000       0.00000000       0.00000000       0.00000000      -1.19919646
Sr       0.00000000       0.00000000       3.41333333       0.00000000       0.00000000       1.19919646
2
Properties=species:S:1:pos:R:3:forces:R:3 energy=-0.4741687255406467 pbc="F F F"
Sr       0.00000000       0.00000000       0.00000000       0.00000000       0.00000000      -1.05364263
Sr       0.00000000       0.00000000       3.47212121       0.00000000       0.00000000       1.05364263
2
Properties=species:S:1:pos:R:3:forces:R:3 energy=-0.5320480731691768 pbc="F F F"
Sr       0.00000000       0.00000000       0.00000000       0.00000000       0.00000000      -0.91663271
Sr       0.00000000       0.00000000       3.53090909       0.00000000       0.00000000       0.91663271
2
Properties=species:S:1:pos:R:3:forces:R:3 energy=-0.5820742216501731 pbc="F F F"
Sr       0.00000000       0.00000000       0.00000000       0.00000000       0.00000000      -0.78636295
Sr       0.00000000       0.00000000       3.58969697       0.00000000       0.00000000       0.78636295
2
Properties=species:S:1:pos:R:3:forces:R:3 energy=-0.6246447381728807 pbc="F F F"
Sr       0.00000000       0.00000000       0.00000000       0.00000000       0.00000000      -0.66319931
Sr       0.00000000       0.00000000       3.64848485       0.00000000       0.00000000       0.66319931
2
Properties=species:S:1:pos:R:3:forces:R:3 energy=-0.6602218370394424 pbc="F F F"
Sr       0.00000000       0.00000000       0.00000000       0.00000000       0.00000000      -0.54880464
Sr       0.00000000       0.00000000       3.70727273       0.00000000       0.00000000       0.54880464
2
Properties=species:S:1:pos:R:3:forces:R:3 energy=-0.6893691041255613 pbc="F F F"
Sr       0.00000000       0.00000000       0.00000000       0.00000000       0.00000000      -0.44446740
Sr       0.00000000       0.00000000       3.76606061       0.00000000       0.00000000       0.44446740
2
Properties=species:S:1:pos:R:3:forces:R:3 energy=-0.712677281346217 pbc="F F F"
Sr       0.00000000       0.00000000       0.00000000       0.00000000       0.00000000      -0.35011292
Sr       0.00000000       0.00000000       3.82484848       0.00000000       0.00000000       0.35011292
2
Properties=species:S:1:pos:R:3:forces:R:3 energy=-0.7307022554904941 pbc="F F F"
Sr       0.00000000       0.00000000       0.00000000       0.00000000       0.00000000      -0.26440114
Sr       0.00000000       0.00000000       3.88363636       0.00000000       0.00000000       0.26440114
2
Properties=species:S:1:pos:R:3:forces:R:3 energy=-0.7438977048294704 pbc="F F F"
Sr       0.00000000       0.00000000       0.00000000       0.00000000       0.00000000      -0.18556172
Sr       0.00000000       0.00000000       3.94242424       0.00000000       0.00000000       0.18556172
2
Properties=species:S:1:pos:R:3:forces:R:3 energy=-0.7526285256252794 pbc="F F F"
Sr       0.00000000       0.00000000       0.00000000       0.00000000       0.00000000      -0.11227711
Sr       0.00000000       0.00000000       4.00121212       0.00000000       0.00000000       0.11227711
2
Properties=species:S:1:pos:R:3:forces:R:3 energy=-0.7572014591443609 pbc="F F F"
Sr       0.00000000       0.00000000       0.00000000       0.00000000       0.00000000      -0.04419006
Sr       0.00000000       0.00000000       4.06000000       0.00000000       0.00000000       0.04419006
2
Properties=species:S:1:pos:R:3:forces:R:3 energy=-0.7579361814812093 pbc="F F F"
Sr       0.00000000       0.00000000       0.00000000       0.00000000       0.00000000       0.01808137
Sr       0.00000000       0.00000000       4.11878788       0.00000000       0.00000000      -0.01808137
2
Properties=species:S:1:pos:R:3:forces:R:3 energy=-0.7552133314478583 pbc="F F F"
Sr       0.00000000       0.00000000       0.00000000       0.00000000       0.00000000       0.07330502
Sr       0.00000000       0.00000000       4.17757576       0.00000000       0.00000000      -0.07330502
2
Properties=species:S:1:pos:R:3:forces:R:3 energy=-0.7494799864887516 pbc="F F F"
Sr       0.00000000       0.00000000       0.00000000       0.00000000       0.00000000       0.12033229
Sr       0.00000000       0.00000000       4.23636364       0.00000000       0.00000000      -0.12033229
2
Properties=species:S:1:pos:R:3:forces:R:3 energy=-0.7412281867647779 pbc="F F F"
Sr       0.00000000       0.00000000       0.00000000       0.00000000       0.00000000       0.15904234
Sr       0.00000000       0.00000000       4.29515152       0.00000000       0.00000000      -0.15904234
2
Properties=species:S:1:pos:R:3:forces:R:3 energy=-0.7309099242481825 pbc="F F F"
Sr       0.00000000       0.00000000       0.00000000       0.00000000       0.00000000       0.19116355
Sr       0.00000000       0.00000000       4.35393939       0.00000000       0.00000000      -0.19116355
2
Properties=species:S:1:pos:R:3:forces:R:3 energy=-0.7188155399549732 pbc="F F F"
Sr       0.00000000       0.00000000       0.00000000       0.00000000       0.00000000       0.22012652
Sr       0.00000000       0.00000000       4.41272727       0.00000000       0.00000000      -0.22012652
2
Properties=species:S:1:pos:R:3:forces:R:3 energy=-0.7050243090580585 pbc="F F F"
Sr       0.00000000       0.00000000       0.00000000       0.00000000       0.00000000       0.24927983
Sr       0.00000000       0.00000000       4.47151515       0.00000000       0.00000000      -0.24927983
2
Properties=species:S:1:pos:R:3:forces:R:3 energy=-0.6894786444036163 pbc="F F F"
Sr       0.00000000       0.00000000       0.00000000       0.00000000       0.00000000       0.27962744
Sr       0.00000000       0.00000000       4.53030303       0.00000000       0.00000000      -0.27962744
2
Properties=species:S:1:pos:R:3:forces:R:3 energy=-0.6721565760425319 pbc="F F F"
Sr       0.00000000       0.00000000       0.00000000       0.00000000       0.00000000       0.30945259
Sr       0.00000000       0.00000000       4.58909091       0.00000000       0.00000000      -0.30945259
2
Properties=species:S:1:pos:R:3:forces:R:3 energy=-0.6531595754229033 pbc="F F F"
Sr       0.00000000       0.00000000       0.00000000       0.00000000       0.00000000       0.33608988
Sr       0.00000000       0.00000000       4.64787879       0.00000000       0.00000000      -0.33608988
2
Properties=species:S:1:pos:R:3:forces:R:3 energy=-0.6327387683774166 pbc="F F F"
Sr       0.00000000       0.00000000       0.00000000       0.00000000       0.00000000       0.35769582
Sr       0.00000000       0.00000000       4.70666667       0.00000000       0.00000000      -0.35769582
2
Properties=species:S:1:pos:R:3:forces:R:3 energy=-0.6112118192153015 pbc="F F F"
Sr       0.00000000       0.00000000       0.00000000       0.00000000       0.00000000       0.37379876
Sr       0.00000000       0.00000000       4.76545455       0.00000000       0.00000000      -0.37379876
2
Properties=species:S:1:pos:R:3:forces:R:3 energy=-0.5888878807288755 pbc="F F F"
Sr       0.00000000       0.00000000       0.00000000       0.00000000       0.00000000       0.38492012
Sr       0.00000000       0.00000000       4.82424242       0.00000000       0.00000000      -0.38492012
2
Properties=species:S:1:pos:R:3:forces:R:3 energy=-0.5660354100796193 pbc="F F F"
Sr       0.00000000       0.00000000       0.00000000       0.00000000       0.00000000       0.39202029
Sr       0.00000000       0.00000000       4.88303030       0.00000000       0.00000000      -0.39202029
2
Properties=species:S:1:pos:R:3:forces:R:3 energy=-0.5428554394849668 pbc="F F F"
Sr       0.00000000       0.00000000       0.00000000       0.00000000       0.00000000       0.39603806
Sr       0.00000000       0.00000000       4.94181818       0.00000000       0.00000000      -0.39603806
2
Properties=species:S:1:pos:R:3:forces:R:3 energy=-0.5195153222867485 pbc="F F F"
Sr       0.00000000       0.00000000       0.00000000       0.00000000       0.00000000       0.39756483
Sr       0.00000000       0.00000000       5.00060606       0.00000000       0.00000000      -0.39756483
2
Properties=species:S:1:pos:R:3:forces:R:3 energy=-0.49615727403910154 pbc="F F F"
Sr       0.00000000       0.00000000       0.00000000       0.00000000       0.00000000       0.39663336
Sr       0.00000000       0.00000000       5.05939394       0.00000000       0.00000000      -0.39663336
2
Properties=species:S:1:pos:R:3:forces:R:3 energy=-0.47294043158162946 pbc="F F F"
Sr       0.00000000       0.00000000       0.00000000       0.00000000       0.00000000       0.39268076
Sr       0.00000000       0.00000000       5.11818182       0.00000000       0.00000000      -0.39268076
2
Properties=species:S:1:pos:R:3:forces:R:3 energy=-0.4500681825096466 pbc="F F F"
Sr       0.00000000       0.00000000       0.00000000       0.00000000       0.00000000       0.38469177
Sr       0.00000000       0.00000000       5.17696970       0.00000000       0.00000000      -0.38469177
2
Properties=species:S:1:pos:R:3:forces:R:3 energy=-0.4278146616670488 pbc="F F F"
Sr       0.00000000       0.00000000       0.00000000       0.00000000       0.00000000       0.37144452
Sr       0.00000000       0.00000000       5.23575758       0.00000000       0.00000000      -0.37144452
2
Properties=species:S:1:pos:R:3:forces:R:3 energy=-0.40652047029964217 pbc="F F F"
Sr       0.00000000       0.00000000       0.00000000       0.00000000       0.00000000       0.35191062
Sr       0.00000000       0.00000000       5.29454545       0.00000000       0.00000000      -0.35191062
2
Properties=species:S:1:pos:R:3:forces:R:3 energy=-0.3865700443052935 pbc="F F F"
Sr       0.00000000       0.00000000       0.00000000       0.00000000       0.00000000       0.32559210
Sr       0.00000000       0.00000000       5.35333333       0.00000000       0.00000000      -0.32559210
2
Properties=species:S:1:pos:R:3:forces:R:3 energy=-0.36836395633721675 pbc="F F F"
Sr       0.00000000       0.00000000       0.00000000       0.00000000       0.00000000       0.29285425
Sr       0.00000000       0.00000000       5.41212121       0.00000000       0.00000000      -0.29285425
2
Properties=species:S:1:pos:R:3:forces:R:3 energy=-0.3522393837050256 pbc="F F F"
Sr       0.00000000       0.00000000       0.00000000       0.00000000       0.00000000       0.25497010
Sr       0.00000000       0.00000000       5.47090909       0.00000000       0.00000000      -0.25497010
2
Properties=species:S:1:pos:R:3:forces:R:3 energy=-0.33844389333848524 pbc="F F F"
Sr       0.00000000       0.00000000       0.00000000       0.00000000       0.00000000       0.21407788
Sr       0.00000000       0.00000000       5.52969697       0.00000000       0.00000000      -0.21407788
2
Properties=species:S:1:pos:R:3:forces:R:3 energy=-0.32707529694913545 pbc="F F F"
Sr       0.00000000       0.00000000       0.00000000       0.00000000       0.00000000       0.17291747
Sr       0.00000000       0.00000000       5.58848485       0.00000000       0.00000000      -0.17291747
2
Properties=species:S:1:pos:R:3:forces:R:3 energy=-0.3180621180499014 pbc="F F F"
Sr       0.00000000       0.00000000       0.00000000       0.00000000       0.00000000       0.13438767
Sr       0.00000000       0.00000000       5.64727273       0.00000000       0.00000000      -0.13438767
2
Properties=species:S:1:pos:R:3:forces:R:3 energy=-0.31117286260119736 pbc="F F F"
Sr       0.00000000       0.00000000       0.00000000       0.00000000       0.00000000       0.10110423
Sr       0.00000000       0.00000000       5.70606061       0.00000000       0.00000000      -0.10110423
2
Properties=species:S:1:pos:R:3:forces:R:3 energy=-0.3060323962010568 pbc="F F F"
Sr       0.00000000       0.00000000       0.00000000       0.00000000       0.00000000       0.07493791
Sr       0.00000000       0.00000000       5.76484848       0.00000000       0.00000000      -0.07493791
2
Properties=species:S:1:pos:R:3:forces:R:3 energy=-0.30220308242975913 pbc="F F F"
Sr       0.00000000       0.00000000       0.00000000       0.00000000       0.00000000       0.05675437
Sr       0.00000000       0.00000000       5.82363636       0.00000000       0.00000000      -0.05675437
2
Properties=species:S:1:pos:R:3:forces:R:3 energy=-0.2992132030099925 pbc="F F F"
Sr       0.00000000       0.00000000       0.00000000       0.00000000       0.00000000       0.04614253
Sr       0.00000000       0.00000000       5.88242424       0.00000000       0.00000000      -0.04614253
2
Properties=species:S:1:pos:R:3:forces:R:3 energy=-0.2966610096776511 pbc="F F F"
Sr       0.00000000       0.00000000       0.00000000       0.00000000       0.00000000       0.04147695
Sr       0.00000000       0.00000000       5.94121212       0.00000000       0.00000000      -0.04147695
2
Properties=species:S:1:pos:R:3:forces:R:3 energy=-0.2942719889903295 pbc="F F F"
Sr       0.00000000       0.00000000       0.00000000       0.00000000       0.00000000       0.04012058
Sr       0.00000000       0.00000000       6.00000000       0.00000000       0.00000000      -0.04012058
