2
Properties=species:S:1:pos:R:3:forces:R:3 energy=12611280.951148735 pbc="F F F"
Ta       0.00000000       0.00000000       0.00000000       0.00000000       0.00000000 -135120640.00000000
Ta       0.00000000       0.00000000       0.18000000       0.00000000       0.00000000 135120640.00000000
2
Properties=species:S:1:pos:R:3:forces:R:3 energy=5951340.451148736 pbc="F F F"
Ta       0.00000000       0.00000000       0.00000000       0.00000000       0.00000000 -89033816.00000000
Ta       0.00000000       0.00000000       0.23878788       0.00000000       0.00000000 89033816.00000000
2
Properties=species:S:1:pos:R:3:forces:R:3 energy=2124548.951148736 pbc="F F F"
Ta       0.00000000       0.00000000       0.00000000       0.00000000       0.00000000 -43270732.00000000
Ta       0.00000000       0.00000000       0.29757576       0.00000000       0.00000000 43270732.00000000
2
Properties=species:S:1:pos:R:3:forces:R:3 energy=634699.3886487391 pbc="F F F"
Ta       0.00000000       0.00000000       0.00000000       0.00000000       0.00000000 -9847141.00000000
Ta       0.00000000       0.00000000       0.35636364       0.00000000       0.00000000 9847141.00000000
2
Properties=species:S:1:pos:R:3:forces:R:3 energy=261719.37302374223 pbc="F F F"
Ta       0.00000000       0.00000000       0.00000000       0.00000000       0.00000000 -3754062.75000000
Ta       0.00000000       0.00000000       0.41515152       0.00000000       0.00000000 3754062.75000000
2
Properties=species:S:1:pos:R:3:forces:R:3 energy=136892.34177374857 pbc="F F F"
Ta       0.00000000       0.00000000       0.00000000       0.00000000       0.00000000 -765843.62500000
Ta       0.00000000       0.00000000       0.47393939       0.00000000       0.00000000  765843.62500000
2
Properties=species:S:1:pos:R:3:forces:R:3 energy=91846.54489875489 pbc="F F F"
Ta       0.00000000       0.00000000       0.00000000       0.00000000       0.00000000 -804444.25000000
Ta       0.00000000       0.00000000       0.53272727       0.00000000       0.00000000  804444.25000000
2
Properties=species:S:1:pos:R:3:forces:R:3 energy=48441.2402112739 pbc="F F F"
Ta       0.00000000       0.00000000       0.00000000       0.00000000       0.00000000 -605278.06250000
Ta       0.00000000       0.00000000       0.59151515       0.00000000       0.00000000  605278.06250000
2
Properties=species:S:1:pos:R:3:forces:R:3 energy=23734.66208630558 pbc="F F F"
Ta       0.00000000       0.00000000       0.00000000       0.00000000       0.00000000 -328794.78125000
Ta       0.00000000       0.00000000       0.65030303       0.00000000       0.00000000  328794.78125000
2
Properties=species:S:1:pos:R:3:forces:R:3 energy=10627.11130509993 pbc="F F F"
Ta       0.00000000       0.00000000       0.00000000       0.00000000       0.00000000 -150117.70312500
Ta       0.00000000       0.00000000       0.70909091       0.00000000       0.00000000  150117.70312500
2
Properties=species:S:1:pos:R:3:forces:R:3 energy=4391.918922357122 pbc="F F F"
Ta       0.00000000       0.00000000       0.00000000       0.00000000       0.00000000  -71118.85937500
Ta       0.00000000       0.00000000       0.76787879       0.00000000       0.00000000   71118.85937500
2
Properties=species:S:1:pos:R:3:forces:R:3 energy=1419.706764255367 pbc="F F F"
Ta       0.00000000       0.00000000       0.00000000       0.00000000       0.00000000  -30298.29296875
Ta       0.00000000       0.00000000       0.82666667       0.00000000       0.00000000   30298.29296875
2
Properties=species:S:1:pos:R:3:forces:R:3 energy=-213.46416455082343 pbc="F F F"
Ta       0.00000000       0.00000000       0.00000000       0.00000000       0.00000000  -23927.26953125
Ta       0.00000000       0.00000000       0.88545455       0.00000000       0.00000000   23927.26953125
2
Properties=species:S:1:pos:R:3:forces:R:3 energy=-994.9439922289422 pbc="F F F"
Ta       0.00000000       0.00000000       0.00000000       0.00000000       0.00000000      29.88612747
Ta       0.00000000       0.00000000       0.94424242       0.00000000       0.00000000     -29.88612747
2
Properties=species:S:1:pos:R:3:forces:R:3 energy=-432.199851322006 pbc="F F F"
Ta       0.00000000       0.00000000       0.00000000       0.00000000       0.00000000    7844.15820312
Ta       0.00000000       0.00000000       1.00303030       0.00000000       0.00000000   -7844.15820312
2
Properties=species:S:1:pos:R:3:forces:R:3 energy=-125.10057726656237 pbc="F F F"
Ta       0.00000000       0.00000000       0.00000000       0.00000000       0.00000000    3412.79931641
Ta       0.00000000       0.00000000       1.06181818       0.00000000       0.00000000   -3412.79931641
2
Properties=species:S:1:pos:R:3:forces:R:3 energy=2.2795940624327367 pbc="F F F"
Ta       0.00000000       0.00000000       0.00000000       0.00000000       0.00000000    1181.08020020
Ta       0.00000000       0.00000000       1.12060606       0.00000000       0.00000000   -1181.08020020
2
Properties=species:S:1:pos:R:3:forces:R:3 energy=56.38425665970024 pbc="F F F"
Ta       0.00000000       0.00000000       0.00000000       0.00000000       0.00000000     679.88513184
Ta       0.00000000       0.00000000       1.17939394       0.00000000       0.00000000    -679.88513184
2
Properties=species:S:1:pos:R:3:forces:R:3 energy=73.90680237268424 pbc="F F F"
Ta       0.00000000       0.00000000       0.00000000       0.00000000       0.00000000      76.99474335
Ta       0.00000000       0.00000000       1.23818182       0.00000000       0.00000000     -76.99474335
2
Properties=species:S:1:pos:R:3:forces:R:3 energy=64.77186236134084 pbc="F F F"
Ta       0.00000000       0.00000000       0.00000000       0.00000000       0.00000000    -275.04443359
Ta       0.00000000       0.00000000       1.29696970       0.00000000       0.00000000     275.04443359
2
Properties=species:S:1:pos:R:3:forces:R:3 energy=50.17042330648815 pbc="F F F"
Ta       0.00000000       0.00000000       0.00000000       0.00000000       0.00000000    -227.62442017
Ta       0.00000000       0.00000000       1.35575758       0.00000000       0.00000000     227.62442017
2
Properties=species:S:1:pos:R:3:forces:R:3 energy=36.84146080272061 pbc="F F F"
Ta       0.00000000       0.00000000       0.00000000       0.00000000       0.00000000    -225.20166016
Ta       0.00000000       0.00000000       1.41454545       0.00000000       0.00000000     225.20166016
2
Properties=species:S:1:pos:R:3:forces:R:3 energy=24.459508747885327 pbc="F F F"
Ta       0.00000000       0.00000000       0.00000000       0.00000000       0.00000000    -189.36997986
Ta       0.00000000       0.00000000       1.47333333       0.00000000       0.00000000     189.36997986
2
Properties=species:S:1:pos:R:3:forces:R:3 energy=14.873161899376488 pbc="F F F"
Ta       0.00000000       0.00000000       0.00000000       0.00000000       0.00000000    -138.78842163
Ta       0.00000000       0.00000000       1.53212121       0.00000000       0.00000000     138.78842163
2
Properties=species:S:1:pos:R:3:forces:R:3 energy=7.955223086603761 pbc="F F F"
Ta       0.00000000       0.00000000       0.00000000       0.00000000       0.00000000     -99.75026703
Ta       0.00000000       0.00000000       1.59090909       0.00000000       0.00000000      99.75026703
2
Properties=species:S:1:pos:R:3:forces:R:3 energy=2.791322815136281 pbc="F F F"
Ta       0.00000000       0.00000000       0.00000000       0.00000000       0.00000000     -75.74281311
Ta       0.00000000       0.00000000       1.64969697       0.00000000       0.00000000      75.74281311
2
Properties=species:S:1:pos:R:3:forces:R:3 energy=-1.1377400574961214 pbc="F F F"
Ta       0.00000000       0.00000000       0.00000000       0.00000000       0.00000000     -59.51561737
Ta       0.00000000       0.00000000       1.70848485       0.00000000       0.00000000      59.51561737
2
Properties=species:S:1:pos:R:3:forces:R:3 energy=-4.234768838272358 pbc="F F F"
Ta       0.00000000       0.00000000       0.00000000       0.00000000       0.00000000     -46.24644089
Ta       0.00000000       0.00000000       1.76727273       0.00000000       0.00000000      46.24644089
2
Properties=species:S:1:pos:R:3:forces:R:3 energy=-6.674386886691602 pbc="F F F"
Ta       0.00000000       0.00000000       0.00000000       0.00000000       0.00000000     -37.03637695
Ta       0.00000000       0.00000000       1.82606061       0.00000000       0.00000000      37.03637695
2
Properties=species:S:1:pos:R:3:forces:R:3 energy=-8.553828748140141 pbc="F F F"
Ta       0.00000000       0.00000000       0.00000000       0.00000000       0.00000000     -27.20831108
Ta       0.00000000       0.00000000       1.88484848       0.00000000       0.00000000      27.20831108
2
Properties=species:S:1:pos:R:3:forces:R:3 energy=-9.90333151595582 pbc="F F F"
Ta       0.00000000       0.00000000       0.00000000       0.00000000       0.00000000     -18.77714729
Ta       0.00000000       0.00000000       1.94363636       0.00000000       0.00000000      18.77714729
2
Properties=species:S:1:pos:R:3:forces:R:3 energy=-10.797201583141083 pbc="F F F"
Ta       0.00000000       0.00000000       0.00000000       0.00000000       0.00000000     -12.03001499
Ta       0.00000000       0.00000000       2.00242424       0.00000000       0.00000000      12.03001499
2
Properties=species:S:1:pos:R:3:forces:R:3 energy=-11.354837060425718 pbc="F F F"
Ta       0.00000000       0.00000000       0.00000000       0.00000000       0.00000000      -7.14837837
Ta       0.00000000       0.00000000       2.06121212       0.00000000       0.00000000       7.14837837
2
Properties=species:S:1:pos:R:3:forces:R:3 energy=-11.659795235107078 pbc="F F F"
Ta       0.00000000       0.00000000       0.00000000       0.00000000       0.00000000      -3.42326999
Ta       0.00000000       0.00000000       2.12000000       0.00000000       0.00000000       3.42326999
2
Properties=species:S:1:pos:R:3:forces:R:3 energy=-11.787155597277042 pbc="F F F"
Ta       0.00000000       0.00000000       0.00000000       0.00000000       0.00000000      -1.17430365
Ta       0.00000000       0.00000000       2.17878788       0.00000000       0.00000000       1.17430365
2
Properties=species:S:1:pos:R:3:forces:R:3 energy=-11.811881782941139 pbc="F F F"
Ta       0.00000000       0.00000000       0.00000000       0.00000000       0.00000000       0.30927342
Ta       0.00000000       0.00000000       2.23757576       0.00000000       0.00000000      -0.30927342
2
Properties=species:S:1:pos:R:3:forces:R:3 energy=-11.760608065109057 pbc="F F F"
Ta       0.00000000       0.00000000       0.00000000       0.00000000       0.00000000       1.33223319
Ta       0.00000000       0.00000000       2.29636364       0.00000000       0.00000000      -1.33223319
2
Properties=species:S:1:pos:R:3:forces:R:3 energy=-11.659403653430871 pbc="F F F"
Ta       0.00000000       0.00000000       0.00000000       0.00000000       0.00000000       2.11584353
Ta       0.00000000       0.00000000       2.35515152       0.00000000       0.00000000      -2.11584353
2
Properties=species:S:1:pos:R:3:forces:R:3 energy=-11.515148119047193 pbc="F F F"
Ta       0.00000000       0.00000000       0.00000000       0.00000000       0.00000000       2.73352575
Ta       0.00000000       0.00000000       2.41393939       0.00000000       0.00000000      -2.73352575
2
Properties=species:S:1:pos:R:3:forces:R:3 energy=-11.344957208699206 pbc="F F F"
Ta       0.00000000       0.00000000       0.00000000       0.00000000       0.00000000       3.00182438
Ta       0.00000000       0.00000000       2.47272727       0.00000000       0.00000000      -3.00182438
2
Properties=species:S:1:pos:R:3:forces:R:3 energy=-11.166103872535581 pbc="F F F"
Ta       0.00000000       0.00000000       0.00000000       0.00000000       0.00000000       3.07960916
Ta       0.00000000       0.00000000       2.53151515       0.00000000       0.00000000      -3.07960916
2
Properties=species:S:1:pos:R:3:forces:R:3 energy=-10.98217092855768 pbc="F F F"
Ta       0.00000000       0.00000000       0.00000000       0.00000000       0.00000000       3.17521524
Ta       0.00000000       0.00000000       2.59030303       0.00000000       0.00000000      -3.17521524
2
Properties=species:S:1:pos:R:3:forces:R:3 energy=-10.794328067694355 pbc="F F F"
Ta       0.00000000       0.00000000       0.00000000       0.00000000       0.00000000       3.20093751
Ta       0.00000000       0.00000000       2.64909091       0.00000000       0.00000000      -3.20093751
2
Properties=species:S:1:pos:R:3:forces:R:3 energy=-10.606454484738737 pbc="F F F"
Ta       0.00000000       0.00000000       0.00000000       0.00000000       0.00000000       3.19419956
Ta       0.00000000       0.00000000       2.70787879       0.00000000       0.00000000      -3.19419956
2
Properties=species:S:1:pos:R:3:forces:R:3 energy=-10.418110440548922 pbc="F F F"
Ta       0.00000000       0.00000000       0.00000000       0.00000000       0.00000000       3.21619797
Ta       0.00000000       0.00000000       2.76666667       0.00000000       0.00000000      -3.21619797
2
Properties=species:S:1:pos:R:3:forces:R:3 energy=-10.228565233260635 pbc="F F F"
Ta       0.00000000       0.00000000       0.00000000       0.00000000       0.00000000       3.22601366
Ta       0.00000000       0.00000000       2.82545455       0.00000000       0.00000000      -3.22601366
2
Properties=species:S:1:pos:R:3:forces:R:3 energy=-10.039739473782523 pbc="F F F"
Ta       0.00000000       0.00000000       0.00000000       0.00000000       0.00000000       3.19012570
Ta       0.00000000       0.00000000       2.88424242       0.00000000       0.00000000      -3.19012570
2
Properties=species:S:1:pos:R:3:forces:R:3 energy=-9.854184845019878 pbc="F F F"
Ta       0.00000000       0.00000000       0.00000000       0.00000000       0.00000000       3.11913276
Ta       0.00000000       0.00000000       2.94303030       0.00000000       0.00000000      -3.11913276
2
Properties=species:S:1:pos:R:3:forces:R:3 energy=-9.67310205817512 pbc="F F F"
Ta       0.00000000       0.00000000       0.00000000       0.00000000       0.00000000       3.04216528
Ta       0.00000000       0.00000000       3.00181818       0.00000000       0.00000000      -3.04216528
2
Properties=species:S:1:pos:R:3:forces:R:3 energy=-9.496504999557098 pbc="F F F"
Ta       0.00000000       0.00000000       0.00000000       0.00000000       0.00000000       2.96356297
Ta       0.00000000       0.00000000       3.06060606       0.00000000       0.00000000      -2.96356297
2
Properties=species:S:1:pos:R:3:forces:R:3 energy=-9.325329669099942 pbc="F F F"
Ta       0.00000000       0.00000000       0.00000000       0.00000000       0.00000000       2.85142016
Ta       0.00000000       0.00000000       3.11939394       0.00000000       0.00000000      -2.85142016
2
Properties=species:S:1:pos:R:3:forces:R:3 energy=-9.162245373942975 pbc="F F F"
Ta       0.00000000       0.00000000       0.00000000       0.00000000       0.00000000       2.68935204
Ta       0.00000000       0.00000000       3.17818182       0.00000000       0.00000000      -2.68935204
2
Properties=species:S:1:pos:R:3:forces:R:3 energy=-9.009728210170724 pbc="F F F"
Ta       0.00000000       0.00000000       0.00000000       0.00000000       0.00000000       2.49681544
Ta       0.00000000       0.00000000       3.23696970       0.00000000       0.00000000      -2.49681544
2
Properties=species:S:1:pos:R:3:forces:R:3 energy=-8.868790345063987 pbc="F F F"
Ta       0.00000000       0.00000000       0.00000000       0.00000000       0.00000000       2.29854083
Ta       0.00000000       0.00000000       3.29575758       0.00000000       0.00000000      -2.29854083
2
Properties=species:S:1:pos:R:3:forces:R:3 energy=-8.73928594290005 pbc="F F F"
Ta       0.00000000       0.00000000       0.00000000       0.00000000       0.00000000       2.10956812
Ta       0.00000000       0.00000000       3.35454545       0.00000000       0.00000000      -2.10956812
2
Properties=species:S:1:pos:R:3:forces:R:3 energy=-8.620445763048261 pbc="F F F"
Ta       0.00000000       0.00000000       0.00000000       0.00000000       0.00000000       1.93633735
Ta       0.00000000       0.00000000       3.41333333       0.00000000       0.00000000      -1.93633735
2
Properties=species:S:1:pos:R:3:forces:R:3 energy=-8.511261243935126 pbc="F F F"
Ta       0.00000000       0.00000000       0.00000000       0.00000000       0.00000000       1.78141189
Ta       0.00000000       0.00000000       3.47212121       0.00000000       0.00000000      -1.78141189
2
Properties=species:S:1:pos:R:3:forces:R:3 energy=-8.41058859305965 pbc="F F F"
Ta       0.00000000       0.00000000       0.00000000       0.00000000       0.00000000       1.64697981
Ta       0.00000000       0.00000000       3.53090909       0.00000000       0.00000000      -1.64697981
2
Properties=species:S:1:pos:R:3:forces:R:3 energy=-8.317203472496855 pbc="F F F"
Ta       0.00000000       0.00000000       0.00000000       0.00000000       0.00000000       1.53340888
Ta       0.00000000       0.00000000       3.58969697       0.00000000       0.00000000      -1.53340888
2
Properties=species:S:1:pos:R:3:forces:R:3 energy=-8.22995095935587 pbc="F F F"
Ta       0.00000000       0.00000000       0.00000000       0.00000000       0.00000000       1.43747234
Ta       0.00000000       0.00000000       3.64848485       0.00000000       0.00000000      -1.43747234
2
Properties=species:S:1:pos:R:3:forces:R:3 energy=-8.147952779620054 pbc="F F F"
Ta       0.00000000       0.00000000       0.00000000       0.00000000       0.00000000       1.35375059
Ta       0.00000000       0.00000000       3.70727273       0.00000000       0.00000000      -1.35375059
2
Properties=species:S:1:pos:R:3:forces:R:3 energy=-8.070643452096961 pbc="F F F"
Ta       0.00000000       0.00000000       0.00000000       0.00000000       0.00000000       1.27710807
Ta       0.00000000       0.00000000       3.76606061       0.00000000       0.00000000      -1.27710807
2
Properties=species:S:1:pos:R:3:forces:R:3 energy=-7.997731615267506 pbc="F F F"
Ta       0.00000000       0.00000000       0.00000000       0.00000000       0.00000000       1.20385456
Ta       0.00000000       0.00000000       3.82484848       0.00000000       0.00000000      -1.20385456
2
Properties=species:S:1:pos:R:3:forces:R:3 energy=-7.929080307817193 pbc="F F F"
Ta       0.00000000       0.00000000       0.00000000       0.00000000       0.00000000       1.13155615
Ta       0.00000000       0.00000000       3.88363636       0.00000000       0.00000000      -1.13155615
2
Properties=species:S:1:pos:R:3:forces:R:3 energy=-7.864697533263267 pbc="F F F"
Ta       0.00000000       0.00000000       0.00000000       0.00000000       0.00000000       1.05863464
Ta       0.00000000       0.00000000       3.94242424       0.00000000       0.00000000      -1.05863464
2
Properties=species:S:1:pos:R:3:forces:R:3 energy=-7.804642939255877 pbc="F F F"
Ta       0.00000000       0.00000000       0.00000000       0.00000000       0.00000000       0.98430741
Ta       0.00000000       0.00000000       4.00121212       0.00000000       0.00000000      -0.98430741
2
Properties=species:S:1:pos:R:3:forces:R:3 energy=-7.7489915969609875 pbc="F F F"
Ta       0.00000000       0.00000000       0.00000000       0.00000000       0.00000000       0.90883744
Ta       0.00000000       0.00000000       4.06000000       0.00000000       0.00000000      -0.90883744
2
Properties=species:S:1:pos:R:3:forces:R:3 energy=-7.69778442266721 pbc="F F F"
Ta       0.00000000       0.00000000       0.00000000       0.00000000       0.00000000       0.83356196
Ta       0.00000000       0.00000000       4.11878788       0.00000000       0.00000000      -0.83356196
2
Properties=species:S:1:pos:R:3:forces:R:3 energy=-7.65094626950055 pbc="F F F"
Ta       0.00000000       0.00000000       0.00000000       0.00000000       0.00000000       0.76036382
Ta       0.00000000       0.00000000       4.17757576       0.00000000       0.00000000      -0.76036382
2
Properties=species:S:1:pos:R:3:forces:R:3 energy=-7.608305019917666 pbc="F F F"
Ta       0.00000000       0.00000000       0.00000000       0.00000000       0.00000000       0.69092441
Ta       0.00000000       0.00000000       4.23636364       0.00000000       0.00000000      -0.69092441
2
Properties=species:S:1:pos:R:3:forces:R:3 energy=-7.569616330552939 pbc="F F F"
Ta       0.00000000       0.00000000       0.00000000       0.00000000       0.00000000       0.62617719
Ta       0.00000000       0.00000000       4.29515152       0.00000000       0.00000000      -0.62617719
2
Properties=species:S:1:pos:R:3:forces:R:3 energy=-7.534586697800112 pbc="F F F"
Ta       0.00000000       0.00000000       0.00000000       0.00000000       0.00000000       0.56627452
Ta       0.00000000       0.00000000       4.35393939       0.00000000       0.00000000      -0.56627452
2
Properties=species:S:1:pos:R:3:forces:R:3 energy=-7.502947698689145 pbc="F F F"
Ta       0.00000000       0.00000000       0.00000000       0.00000000       0.00000000       0.51087040
Ta       0.00000000       0.00000000       4.41272727       0.00000000       0.00000000      -0.51087040
2
Properties=species:S:1:pos:R:3:forces:R:3 energy=-7.4744428611933404 pbc="F F F"
Ta       0.00000000       0.00000000       0.00000000       0.00000000       0.00000000       0.45949620
Ta       0.00000000       0.00000000       4.47151515       0.00000000       0.00000000      -0.45949620
2
Properties=species:S:1:pos:R:3:forces:R:3 energy=-7.448850381350539 pbc="F F F"
Ta       0.00000000       0.00000000       0.00000000       0.00000000       0.00000000       0.41180649
Ta       0.00000000       0.00000000       4.53030303       0.00000000       0.00000000      -0.41180649
2
Properties=species:S:1:pos:R:3:forces:R:3 energy=-7.4259508155457805 pbc="F F F"
Ta       0.00000000       0.00000000       0.00000000       0.00000000       0.00000000       0.36766681
Ta       0.00000000       0.00000000       4.58909091       0.00000000       0.00000000      -0.36766681
2
Properties=species:S:1:pos:R:3:forces:R:3 energy=-7.405551863372243 pbc="F F F"
Ta       0.00000000       0.00000000       0.00000000       0.00000000       0.00000000       0.32713020
Ta       0.00000000       0.00000000       4.64787879       0.00000000       0.00000000      -0.32713020
2
Properties=species:S:1:pos:R:3:forces:R:3 energy=-7.387417741878853 pbc="F F F"
Ta       0.00000000       0.00000000       0.00000000       0.00000000       0.00000000       0.29034916
Ta       0.00000000       0.00000000       4.70666667       0.00000000       0.00000000      -0.29034916
2
Properties=species:S:1:pos:R:3:forces:R:3 energy=-7.371336006128873 pbc="F F F"
Ta       0.00000000       0.00000000       0.00000000       0.00000000       0.00000000       0.25751168
Ta       0.00000000       0.00000000       4.76545455       0.00000000       0.00000000      -0.25751168
2
Properties=species:S:1:pos:R:3:forces:R:3 energy=-7.35706020519586 pbc="F F F"
Ta       0.00000000       0.00000000       0.00000000       0.00000000       0.00000000       0.22877920
Ta       0.00000000       0.00000000       4.82424242       0.00000000       0.00000000      -0.22877920
2
Properties=species:S:1:pos:R:3:forces:R:3 energy=-7.344355709216 pbc="F F F"
Ta       0.00000000       0.00000000       0.00000000       0.00000000       0.00000000       0.20425449
Ta       0.00000000       0.00000000       4.88303030       0.00000000       0.00000000      -0.20425449
2
Properties=species:S:1:pos:R:3:forces:R:3 energy=-7.332963355722492 pbc="F F F"
Ta       0.00000000       0.00000000       0.00000000       0.00000000       0.00000000       0.18392539
Ta       0.00000000       0.00000000       4.94181818       0.00000000       0.00000000      -0.18392539
2
Properties=species:S:1:pos:R:3:forces:R:3 energy=-7.3226490058639575 pbc="F F F"
Ta       0.00000000       0.00000000       0.00000000       0.00000000       0.00000000       0.16762646
Ta       0.00000000       0.00000000       5.00060606       0.00000000       0.00000000      -0.16762646
2
Properties=species:S:1:pos:R:3:forces:R:3 energy=-7.313178736200922 pbc="F F F"
Ta       0.00000000       0.00000000       0.00000000       0.00000000       0.00000000       0.15496327
Ta       0.00000000       0.00000000       5.05939394       0.00000000       0.00000000      -0.15496327
2
Properties=species:S:1:pos:R:3:forces:R:3 energy=-7.304372111419006 pbc="F F F"
Ta       0.00000000       0.00000000       0.00000000       0.00000000       0.00000000       0.14526747
Ta       0.00000000       0.00000000       5.11818182       0.00000000       0.00000000      -0.14526747
2
Properties=species:S:1:pos:R:3:forces:R:3 energy=-7.296062088825949 pbc="F F F"
Ta       0.00000000       0.00000000       0.00000000       0.00000000       0.00000000       0.13761421
Ta       0.00000000       0.00000000       5.17696970       0.00000000       0.00000000      -0.13761421
2
Properties=species:S:1:pos:R:3:forces:R:3 energy=-7.288171280618699 pbc="F F F"
Ta       0.00000000       0.00000000       0.00000000       0.00000000       0.00000000       0.13091534
Ta       0.00000000       0.00000000       5.23575758       0.00000000       0.00000000      -0.13091534
2
Properties=species:S:1:pos:R:3:forces:R:3 energy=-7.2806736770300455 pbc="F F F"
Ta       0.00000000       0.00000000       0.00000000       0.00000000       0.00000000       0.12405780
Ta       0.00000000       0.00000000       5.29454545       0.00000000       0.00000000      -0.12405780
2
Properties=species:S:1:pos:R:3:forces:R:3 energy=-7.273606090420422 pbc="F F F"
Ta       0.00000000       0.00000000       0.00000000       0.00000000       0.00000000       0.11610678
Ta       0.00000000       0.00000000       5.35333333       0.00000000       0.00000000      -0.11610678
2
Properties=species:S:1:pos:R:3:forces:R:3 energy=-7.267056647829664 pbc="F F F"
Ta       0.00000000       0.00000000       0.00000000       0.00000000       0.00000000       0.10646088
Ta       0.00000000       0.00000000       5.41212121       0.00000000       0.00000000      -0.10646088
2
Properties=species:S:1:pos:R:3:forces:R:3 energy=-7.2611265204592845 pbc="F F F"
Ta       0.00000000       0.00000000       0.00000000       0.00000000       0.00000000       0.09497432
Ta       0.00000000       0.00000000       5.47090909       0.00000000       0.00000000      -0.09497432
2
Properties=species:S:1:pos:R:3:forces:R:3 energy=-7.25591282089123 pbc="F F F"
Ta       0.00000000       0.00000000       0.00000000       0.00000000       0.00000000       0.08197453
Ta       0.00000000       0.00000000       5.52969697       0.00000000       0.00000000      -0.08197453
2
Properties=species:S:1:pos:R:3:forces:R:3 energy=-7.2515008913299654 pbc="F F F"
Ta       0.00000000       0.00000000       0.00000000       0.00000000       0.00000000       0.06819589
Ta       0.00000000       0.00000000       5.58848485       0.00000000       0.00000000      -0.06819589
2
Properties=species:S:1:pos:R:3:forces:R:3 energy=-7.2479013262515535 pbc="F F F"
Ta       0.00000000       0.00000000       0.00000000       0.00000000       0.00000000       0.05463593
Ta       0.00000000       0.00000000       5.64727273       0.00000000       0.00000000      -0.05463593
2
Properties=species:S:1:pos:R:3:forces:R:3 energy=-7.245053790268738 pbc="F F F"
Ta       0.00000000       0.00000000       0.00000000       0.00000000       0.00000000       0.04234651
Ta       0.00000000       0.00000000       5.70606061       0.00000000       0.00000000      -0.04234651
2
Properties=species:S:1:pos:R:3:forces:R:3 energy=-7.24287662186669 pbc="F F F"
Ta       0.00000000       0.00000000       0.00000000       0.00000000       0.00000000       0.03223764
Ta       0.00000000       0.00000000       5.76484848       0.00000000       0.00000000      -0.03223764
2
Properties=species:S:1:pos:R:3:forces:R:3 energy=-7.241211493366164 pbc="F F F"
Ta       0.00000000       0.00000000       0.00000000       0.00000000       0.00000000       0.02488109
Ta       0.00000000       0.00000000       5.82363636       0.00000000       0.00000000      -0.02488109
2
Properties=species:S:1:pos:R:3:forces:R:3 energy=-7.2398939749033575 pbc="F F F"
Ta       0.00000000       0.00000000       0.00000000       0.00000000       0.00000000       0.02034092
Ta       0.00000000       0.00000000       5.88242424       0.00000000       0.00000000      -0.02034092
2
Properties=species:S:1:pos:R:3:forces:R:3 energy=-7.238770779763165 pbc="F F F"
Ta       0.00000000       0.00000000       0.00000000       0.00000000       0.00000000       0.01812607
Ta       0.00000000       0.00000000       5.94121212       0.00000000       0.00000000      -0.01812607
2
Properties=species:S:1:pos:R:3:forces:R:3 energy=-7.237734042801583 pbc="F F F"
Ta       0.00000000       0.00000000       0.00000000       0.00000000       0.00000000       0.01725321
Ta       0.00000000       0.00000000       6.00000000       0.00000000       0.00000000      -0.01725321
