2
Properties=species:S:1:pos:R:3:forces:R:3 energy=12611218.951148735 pbc="F F F"
Ta       0.00000000       0.00000000       0.00000000       0.00000000       0.00000000 -135120016.00000000
Ta       0.00000000       0.00000000       0.18000000       0.00000000       0.00000000 135120016.00000000
2
Properties=species:S:1:pos:R:3:forces:R:3 energy=5951363.451148736 pbc="F F F"
Ta       0.00000000       0.00000000       0.00000000       0.00000000       0.00000000 -89033864.00000000
Ta       0.00000000       0.00000000       0.23878788       0.00000000       0.00000000 89033864.00000000
2
Properties=species:S:1:pos:R:3:forces:R:3 energy=2124541.701148736 pbc="F F F"
Ta       0.00000000       0.00000000       0.00000000       0.00000000       0.00000000 -43270652.00000000
Ta       0.00000000       0.00000000       0.29757576       0.00000000       0.00000000 43270652.00000000
2
Properties=species:S:1:pos:R:3:forces:R:3 energy=634699.8886487391 pbc="F F F"
Ta       0.00000000       0.00000000       0.00000000       0.00000000       0.00000000 -9847144.00000000
Ta       0.00000000       0.00000000       0.35636364       0.00000000       0.00000000 9847144.00000000
2
Properties=species:S:1:pos:R:3:forces:R:3 energy=261719.91989874223 pbc="F F F"
Ta       0.00000000       0.00000000       0.00000000       0.00000000       0.00000000 -3754065.50000000
Ta       0.00000000       0.00000000       0.41515152       0.00000000       0.00000000 3754065.50000000
2
Properties=species:S:1:pos:R:3:forces:R:3 energy=136893.09177374857 pbc="F F F"
Ta       0.00000000       0.00000000       0.00000000       0.00000000       0.00000000 -765849.62500000
Ta       0.00000000       0.00000000       0.47393939       0.00000000       0.00000000  765849.62500000
2
Properties=species:S:1:pos:R:3:forces:R:3 energy=91846.56833625489 pbc="F F F"
Ta       0.00000000       0.00000000       0.00000000       0.00000000       0.00000000 -804443.50000000
Ta       0.00000000       0.00000000       0.53272727       0.00000000       0.00000000  804443.50000000
2
Properties=species:S:1:pos:R:3:forces:R:3 energy=48441.0995862739 pbc="F F F"
Ta       0.00000000       0.00000000       0.00000000       0.00000000       0.00000000 -605276.81250000
Ta       0.00000000       0.00000000       0.59151515       0.00000000       0.00000000  605276.81250000
2
Properties=species:S:1:pos:R:3:forces:R:3 energy=23734.64060193058 pbc="F F F"
Ta       0.00000000       0.00000000       0.00000000       0.00000000       0.00000000 -328794.43750000
Ta       0.00000000       0.00000000       0.65030303       0.00000000       0.00000000  328794.43750000
2
Properties=species:S:1:pos:R:3:forces:R:3 energy=10627.16696916243 pbc="F F F"
Ta       0.00000000       0.00000000       0.00000000       0.00000000       0.00000000 -150118.17187500
Ta       0.00000000       0.00000000       0.70909091       0.00000000       0.00000000  150118.17187500
2
Properties=species:S:1:pos:R:3:forces:R:3 energy=4391.915992669622 pbc="F F F"
Ta       0.00000000       0.00000000       0.00000000       0.00000000       0.00000000  -71118.84375000
Ta       0.00000000       0.00000000       0.76787879       0.00000000       0.00000000   71118.84375000
2
Properties=species:S:1:pos:R:3:forces:R:3 energy=1419.7088394506795 pbc="F F F"
Ta       0.00000000       0.00000000       0.00000000       0.00000000       0.00000000  -30298.32617188
Ta       0.00000000       0.00000000       0.82666667       0.00000000       0.00000000   30298.32617188
2
Properties=species:S:1:pos:R:3:forces:R:3 energy=-213.45821362308905 pbc="F F F"
Ta       0.00000000       0.00000000       0.00000000       0.00000000       0.00000000  -23927.32812500
Ta       0.00000000       0.00000000       0.88545455       0.00000000       0.00000000   23927.32812500
2
Properties=species:S:1:pos:R:3:forces:R:3 energy=-994.9421611742547 pbc="F F F"
Ta       0.00000000       0.00000000       0.00000000       0.00000000       0.00000000      29.98955154
Ta       0.00000000       0.00000000       0.94424242       0.00000000       0.00000000     -29.98955154
2
Properties=species:S:1:pos:R:3:forces:R:3 energy=-432.2000039098966 pbc="F F F"
Ta       0.00000000       0.00000000       0.00000000       0.00000000       0.00000000    7844.16259766
Ta       0.00000000       0.00000000       1.00303030       0.00000000       0.00000000   -7844.16259766
2
Properties=species:S:1:pos:R:3:forces:R:3 energy=-125.1014393881444 pbc="F F F"
Ta       0.00000000       0.00000000       0.00000000       0.00000000       0.00000000    3412.80493164
Ta       0.00000000       0.00000000       1.06181818       0.00000000       0.00000000   -3412.80493164
2
Properties=species:S:1:pos:R:3:forces:R:3 energy=2.280202506646604 pbc="F F F"
Ta       0.00000000       0.00000000       0.00000000       0.00000000       0.00000000    1181.07275391
Ta       0.00000000       0.00000000       1.12060606       0.00000000       0.00000000   -1181.07275391
2
Properties=species:S:1:pos:R:3:forces:R:3 energy=56.3842948066729 pbc="F F F"
Ta       0.00000000       0.00000000       0.00000000       0.00000000       0.00000000     679.88476562
Ta       0.00000000       0.00000000       1.17939394       0.00000000       0.00000000    -679.88476562
2
Properties=species:S:1:pos:R:3:forces:R:3 energy=73.90682526086783 pbc="F F F"
Ta       0.00000000       0.00000000       0.00000000       0.00000000       0.00000000      76.99425507
Ta       0.00000000       0.00000000       1.23818182       0.00000000       0.00000000     -76.99425507
2
Properties=species:S:1:pos:R:3:forces:R:3 energy=64.77184710255177 pbc="F F F"
Ta       0.00000000       0.00000000       0.00000000       0.00000000       0.00000000    -275.04418945
Ta       0.00000000       0.00000000       1.29696970       0.00000000       0.00000000     275.04418945
2
Properties=species:S:1:pos:R:3:forces:R:3 energy=50.17040041830456 pbc="F F F"
Ta       0.00000000       0.00000000       0.00000000       0.00000000       0.00000000    -227.62440491
Ta       0.00000000       0.00000000       1.35575758       0.00000000       0.00000000     227.62440491
2
Properties=species:S:1:pos:R:3:forces:R:3 energy=36.84144554393155 pbc="F F F"
Ta       0.00000000       0.00000000       0.00000000       0.00000000       0.00000000    -225.20162964
Ta       0.00000000       0.00000000       1.41454545       0.00000000       0.00000000     225.20162964
2
Properties=species:S:1:pos:R:3:forces:R:3 energy=24.459508747885327 pbc="F F F"
Ta       0.00000000       0.00000000       0.00000000       0.00000000       0.00000000    -189.37004089
Ta       0.00000000       0.00000000       1.47333333       0.00000000       0.00000000     189.37004089
2
Properties=species:S:1:pos:R:3:forces:R:3 energy=14.873161899376488 pbc="F F F"
Ta       0.00000000       0.00000000       0.00000000       0.00000000       0.00000000    -138.78842163
Ta       0.00000000       0.00000000       1.53212121       0.00000000       0.00000000     138.78842163
2
Properties=species:S:1:pos:R:3:forces:R:3 energy=7.955219271906495 pbc="F F F"
Ta       0.00000000       0.00000000       0.00000000       0.00000000       0.00000000     -99.75022888
Ta       0.00000000       0.00000000       1.59090909       0.00000000       0.00000000      99.75022888
2
Properties=species:S:1:pos:R:3:forces:R:3 energy=2.791322815136281 pbc="F F F"
Ta       0.00000000       0.00000000       0.00000000       0.00000000       0.00000000     -75.74278259
Ta       0.00000000       0.00000000       1.64969697       0.00000000       0.00000000      75.74278259
2
Properties=species:S:1:pos:R:3:forces:R:3 energy=-1.1377457795420198 pbc="F F F"
Ta       0.00000000       0.00000000       0.00000000       0.00000000       0.00000000     -59.51559448
Ta       0.00000000       0.00000000       1.70848485       0.00000000       0.00000000      59.51559448
2
Properties=species:S:1:pos:R:3:forces:R:3 energy=-4.23476884144018 pbc="F F F"
Ta       0.00000000       0.00000000       0.00000000       0.00000000       0.00000000     -46.24643326
Ta       0.00000000       0.00000000       1.76727273       0.00000000       0.00000000      46.24643326
2
Properties=species:S:1:pos:R:3:forces:R:3 energy=-6.674383065658692 pbc="F F F"
Ta       0.00000000       0.00000000       0.00000000       0.00000000       0.00000000     -37.03637314
Ta       0.00000000       0.00000000       1.82606061       0.00000000       0.00000000      37.03637314
2
Properties=species:S:1:pos:R:3:forces:R:3 energy=-8.553824939778519 pbc="F F F"
Ta       0.00000000       0.00000000       0.00000000       0.00000000       0.00000000     -27.20831490
Ta       0.00000000       0.00000000       1.88484848       0.00000000       0.00000000      27.20831490
2
Properties=species:S:1:pos:R:3:forces:R:3 energy=-9.90333151595582 pbc="F F F"
Ta       0.00000000       0.00000000       0.00000000       0.00000000       0.00000000     -18.77714920
Ta       0.00000000       0.00000000       1.94363636       0.00000000       0.00000000      18.77714920
2
Properties=species:S:1:pos:R:3:forces:R:3 energy=-10.797205397838349 pbc="F F F"
Ta       0.00000000       0.00000000       0.00000000       0.00000000       0.00000000     -12.03001022
Ta       0.00000000       0.00000000       2.00242424       0.00000000       0.00000000      12.03001022
2
Properties=species:S:1:pos:R:3:forces:R:3 energy=-11.354837060425718 pbc="F F F"
Ta       0.00000000       0.00000000       0.00000000       0.00000000       0.00000000      -7.14838076
Ta       0.00000000       0.00000000       2.06121212       0.00000000       0.00000000       7.14838076
2
Properties=species:S:1:pos:R:3:forces:R:3 energy=-11.659795235107078 pbc="F F F"
Ta       0.00000000       0.00000000       0.00000000       0.00000000       0.00000000      -3.42326975
Ta       0.00000000       0.00000000       2.12000000       0.00000000       0.00000000       3.42326975
2
Properties=species:S:1:pos:R:3:forces:R:3 energy=-11.787155597277042 pbc="F F F"
Ta       0.00000000       0.00000000       0.00000000       0.00000000       0.00000000      -1.17430472
Ta       0.00000000       0.00000000       2.17878788       0.00000000       0.00000000       1.17430472
2
Properties=species:S:1:pos:R:3:forces:R:3 energy=-11.811879875592506 pbc="F F F"
Ta       0.00000000       0.00000000       0.00000000       0.00000000       0.00000000       0.30927396
Ta       0.00000000       0.00000000       2.23757576       0.00000000       0.00000000      -0.30927396
2
Properties=species:S:1:pos:R:3:forces:R:3 energy=-11.76060997245769 pbc="F F F"
Ta       0.00000000       0.00000000       0.00000000       0.00000000       0.00000000       1.33223462
Ta       0.00000000       0.00000000       2.29636364       0.00000000       0.00000000      -1.33223462
2
Properties=species:S:1:pos:R:3:forces:R:3 energy=-11.65940555761168 pbc="F F F"
Ta       0.00000000       0.00000000       0.00000000       0.00000000       0.00000000       2.11584616
Ta       0.00000000       0.00000000       2.35515152       0.00000000       0.00000000      -2.11584616
2
Properties=species:S:1:pos:R:3:forces:R:3 energy=-11.515150032731471 pbc="F F F"
Ta       0.00000000       0.00000000       0.00000000       0.00000000       0.00000000       2.73352671
Ta       0.00000000       0.00000000       2.41393939       0.00000000       0.00000000      -2.73352671
2
Properties=species:S:1:pos:R:3:forces:R:3 energy=-11.344957208699206 pbc="F F F"
Ta       0.00000000       0.00000000       0.00000000       0.00000000       0.00000000       3.00182343
Ta       0.00000000       0.00000000       2.47272727       0.00000000       0.00000000      -3.00182343
2
Properties=species:S:1:pos:R:3:forces:R:3 energy=-11.166103875703405 pbc="F F F"
Ta       0.00000000       0.00000000       0.00000000       0.00000000       0.00000000       3.07960892
Ta       0.00000000       0.00000000       2.53151515       0.00000000       0.00000000      -3.07960892
2
Properties=species:S:1:pos:R:3:forces:R:3 energy=-10.982170934893325 pbc="F F F"
Ta       0.00000000       0.00000000       0.00000000       0.00000000       0.00000000       3.17521477
Ta       0.00000000       0.00000000       2.59030303       0.00000000       0.00000000      -3.17521477
2
Properties=species:S:1:pos:R:3:forces:R:3 energy=-10.794328058190889 pbc="F F F"
Ta       0.00000000       0.00000000       0.00000000       0.00000000       0.00000000       3.20093822
Ta       0.00000000       0.00000000       2.64909091       0.00000000       0.00000000      -3.20093822
2
Properties=species:S:1:pos:R:3:forces:R:3 energy=-10.606454484738737 pbc="F F F"
Ta       0.00000000       0.00000000       0.00000000       0.00000000       0.00000000       3.19419909
Ta       0.00000000       0.00000000       2.70787879       0.00000000       0.00000000      -3.19419909
2
Properties=species:S:1:pos:R:3:forces:R:3 energy=-10.41811042470981 pbc="F F F"
Ta       0.00000000       0.00000000       0.00000000       0.00000000       0.00000000       3.21619844
Ta       0.00000000       0.00000000       2.76666667       0.00000000       0.00000000      -3.21619844
2
Properties=species:S:1:pos:R:3:forces:R:3 energy=-10.22856141856337 pbc="F F F"
Ta       0.00000000       0.00000000       0.00000000       0.00000000       0.00000000       3.22601199
Ta       0.00000000       0.00000000       2.82545455       0.00000000       0.00000000      -3.22601199
2
Properties=species:S:1:pos:R:3:forces:R:3 energy=-10.039739480118168 pbc="F F F"
Ta       0.00000000       0.00000000       0.00000000       0.00000000       0.00000000       3.19012594
Ta       0.00000000       0.00000000       2.88424242       0.00000000       0.00000000      -3.19012594
2
Properties=species:S:1:pos:R:3:forces:R:3 energy=-9.854182924999956 pbc="F F F"
Ta       0.00000000       0.00000000       0.00000000       0.00000000       0.00000000       3.11913300
Ta       0.00000000       0.00000000       2.94303030       0.00000000       0.00000000      -3.11913300
2
Properties=species:S:1:pos:R:3:forces:R:3 energy=-9.673102039168187 pbc="F F F"
Ta       0.00000000       0.00000000       0.00000000       0.00000000       0.00000000       3.04216552
Ta       0.00000000       0.00000000       3.00181818       0.00000000       0.00000000      -3.04216552
2
Properties=species:S:1:pos:R:3:forces:R:3 energy=-9.49650309854411 pbc="F F F"
Ta       0.00000000       0.00000000       0.00000000       0.00000000       0.00000000       2.96356440
Ta       0.00000000       0.00000000       3.06060606       0.00000000       0.00000000      -2.96356440
2
Properties=species:S:1:pos:R:3:forces:R:3 energy=-9.325333483797207 pbc="F F F"
Ta       0.00000000       0.00000000       0.00000000       0.00000000       0.00000000       2.85142136
Ta       0.00000000       0.00000000       3.11939394       0.00000000       0.00000000      -2.85142136
2
Properties=species:S:1:pos:R:3:forces:R:3 energy=-9.16224726862032 pbc="F F F"
Ta       0.00000000       0.00000000       0.00000000       0.00000000       0.00000000       2.68935180
Ta       0.00000000       0.00000000       3.17818182       0.00000000       0.00000000      -2.68935180
2
Properties=species:S:1:pos:R:3:forces:R:3 energy=-9.009724389137816 pbc="F F F"
Ta       0.00000000       0.00000000       0.00000000       0.00000000       0.00000000       2.49681520
Ta       0.00000000       0.00000000       3.23696970       0.00000000       0.00000000      -2.49681520
2
Properties=species:S:1:pos:R:3:forces:R:3 energy=-8.868790345063987 pbc="F F F"
Ta       0.00000000       0.00000000       0.00000000       0.00000000       0.00000000       2.29854131
Ta       0.00000000       0.00000000       3.29575758       0.00000000       0.00000000      -2.29854131
2
Properties=species:S:1:pos:R:3:forces:R:3 energy=-8.739282128202785 pbc="F F F"
Ta       0.00000000       0.00000000       0.00000000       0.00000000       0.00000000       2.10956740
Ta       0.00000000       0.00000000       3.35454545       0.00000000       0.00000000      -2.10956740
2
Properties=species:S:1:pos:R:3:forces:R:3 energy=-8.620445763048261 pbc="F F F"
Ta       0.00000000       0.00000000       0.00000000       0.00000000       0.00000000       1.93633640
Ta       0.00000000       0.00000000       3.41333333       0.00000000       0.00000000      -1.93633640
2
Properties=species:S:1:pos:R:3:forces:R:3 energy=-8.511255521889227 pbc="F F F"
Ta       0.00000000       0.00000000       0.00000000       0.00000000       0.00000000       1.78141284
Ta       0.00000000       0.00000000       3.47212121       0.00000000       0.00000000      -1.78141284
2
Properties=species:S:1:pos:R:3:forces:R:3 energy=-8.410586698382305 pbc="F F F"
Ta       0.00000000       0.00000000       0.00000000       0.00000000       0.00000000       1.64698005
Ta       0.00000000       0.00000000       3.53090909       0.00000000       0.00000000      -1.64698005
2
Properties=species:S:1:pos:R:3:forces:R:3 energy=-8.317203472496855 pbc="F F F"
Ta       0.00000000       0.00000000       0.00000000       0.00000000       0.00000000       1.53340828
Ta       0.00000000       0.00000000       3.58969697       0.00000000       0.00000000      -1.53340828
2
Properties=species:S:1:pos:R:3:forces:R:3 energy=-8.229949052007237 pbc="F F F"
Ta       0.00000000       0.00000000       0.00000000       0.00000000       0.00000000       1.43747270
Ta       0.00000000       0.00000000       3.64848485       0.00000000       0.00000000      -1.43747270
2
Properties=species:S:1:pos:R:3:forces:R:3 energy=-8.147950872271421 pbc="F F F"
Ta       0.00000000       0.00000000       0.00000000       0.00000000       0.00000000       1.35375094
Ta       0.00000000       0.00000000       3.70727273       0.00000000       0.00000000      -1.35375094
2
Properties=species:S:1:pos:R:3:forces:R:3 energy=-8.070643452096961 pbc="F F F"
Ta       0.00000000       0.00000000       0.00000000       0.00000000       0.00000000       1.27710807
Ta       0.00000000       0.00000000       3.76606061       0.00000000       0.00000000      -1.27710807
2
Properties=species:S:1:pos:R:3:forces:R:3 energy=-7.997729707918873 pbc="F F F"
Ta       0.00000000       0.00000000       0.00000000       0.00000000       0.00000000       1.20385528
Ta       0.00000000       0.00000000       3.82484848       0.00000000       0.00000000      -1.20385528
2
Properties=species:S:1:pos:R:3:forces:R:3 energy=-7.929080307817193 pbc="F F F"
Ta       0.00000000       0.00000000       0.00000000       0.00000000       0.00000000       1.13155687
Ta       0.00000000       0.00000000       3.88363636       0.00000000       0.00000000      -1.13155687
2
Properties=species:S:1:pos:R:3:forces:R:3 energy=-7.864697533263267 pbc="F F F"
Ta       0.00000000       0.00000000       0.00000000       0.00000000       0.00000000       1.05863440
Ta       0.00000000       0.00000000       3.94242424       0.00000000       0.00000000      -1.05863440
2
Properties=species:S:1:pos:R:3:forces:R:3 energy=-7.804642939255877 pbc="F F F"
Ta       0.00000000       0.00000000       0.00000000       0.00000000       0.00000000       0.98430783
Ta       0.00000000       0.00000000       4.00121212       0.00000000       0.00000000      -0.98430783
2
Properties=species:S:1:pos:R:3:forces:R:3 energy=-7.7489915969609875 pbc="F F F"
Ta       0.00000000       0.00000000       0.00000000       0.00000000       0.00000000       0.90883738
Ta       0.00000000       0.00000000       4.06000000       0.00000000       0.00000000      -0.90883738
2
Properties=species:S:1:pos:R:3:forces:R:3 energy=-7.69778442266721 pbc="F F F"
Ta       0.00000000       0.00000000       0.00000000       0.00000000       0.00000000       0.83356148
Ta       0.00000000       0.00000000       4.11878788       0.00000000       0.00000000      -0.83356148
2
Properties=species:S:1:pos:R:3:forces:R:3 energy=-7.65094626950055 pbc="F F F"
Ta       0.00000000       0.00000000       0.00000000       0.00000000       0.00000000       0.76036489
Ta       0.00000000       0.00000000       4.17757576       0.00000000       0.00000000      -0.76036489
2
Properties=species:S:1:pos:R:3:forces:R:3 energy=-7.608306927266299 pbc="F F F"
Ta       0.00000000       0.00000000       0.00000000       0.00000000       0.00000000       0.69092518
Ta       0.00000000       0.00000000       4.23636364       0.00000000       0.00000000      -0.69092518
2
Properties=species:S:1:pos:R:3:forces:R:3 energy=-7.569612515855673 pbc="F F F"
Ta       0.00000000       0.00000000       0.00000000       0.00000000       0.00000000       0.62617743
Ta       0.00000000       0.00000000       4.29515152       0.00000000       0.00000000      -0.62617743
2
Properties=species:S:1:pos:R:3:forces:R:3 energy=-7.534586697800112 pbc="F F F"
Ta       0.00000000       0.00000000       0.00000000       0.00000000       0.00000000       0.56627518
Ta       0.00000000       0.00000000       4.35393939       0.00000000       0.00000000      -0.56627518
2
Properties=species:S:1:pos:R:3:forces:R:3 energy=-7.5029477113604335 pbc="F F F"
Ta       0.00000000       0.00000000       0.00000000       0.00000000       0.00000000       0.51086992
Ta       0.00000000       0.00000000       4.41272727       0.00000000       0.00000000      -0.51086992
2
Properties=species:S:1:pos:R:3:forces:R:3 energy=-7.474444768541973 pbc="F F F"
Ta       0.00000000       0.00000000       0.00000000       0.00000000       0.00000000       0.45949686
Ta       0.00000000       0.00000000       4.47151515       0.00000000       0.00000000      -0.45949686
2
Properties=species:S:1:pos:R:3:forces:R:3 energy=-7.448850381350539 pbc="F F F"
Ta       0.00000000       0.00000000       0.00000000       0.00000000       0.00000000       0.41180691
Ta       0.00000000       0.00000000       4.53030303       0.00000000       0.00000000      -0.41180691
2
Properties=species:S:1:pos:R:3:forces:R:3 energy=-7.425954639746513 pbc="F F F"
Ta       0.00000000       0.00000000       0.00000000       0.00000000       0.00000000       0.36766642
Ta       0.00000000       0.00000000       4.58909091       0.00000000       0.00000000      -0.36766642
2
Properties=species:S:1:pos:R:3:forces:R:3 energy=-7.40554995602361 pbc="F F F"
Ta       0.00000000       0.00000000       0.00000000       0.00000000       0.00000000       0.32712924
Ta       0.00000000       0.00000000       4.64787879       0.00000000       0.00000000      -0.32712924
2
Properties=species:S:1:pos:R:3:forces:R:3 energy=-7.387417741878853 pbc="F F F"
Ta       0.00000000       0.00000000       0.00000000       0.00000000       0.00000000       0.29034802
Ta       0.00000000       0.00000000       4.70666667       0.00000000       0.00000000      -0.29034802
2
Properties=species:S:1:pos:R:3:forces:R:3 energy=-7.371336006128873 pbc="F F F"
Ta       0.00000000       0.00000000       0.00000000       0.00000000       0.00000000       0.25751123
Ta       0.00000000       0.00000000       4.76545455       0.00000000       0.00000000      -0.25751123
2
Properties=species:S:1:pos:R:3:forces:R:3 energy=-7.35706020519586 pbc="F F F"
Ta       0.00000000       0.00000000       0.00000000       0.00000000       0.00000000       0.22878061
Ta       0.00000000       0.00000000       4.82424242       0.00000000       0.00000000      -0.22878061
2
Properties=species:S:1:pos:R:3:forces:R:3 energy=-7.344355709216 pbc="F F F"
Ta       0.00000000       0.00000000       0.00000000       0.00000000       0.00000000       0.20425525
Ta       0.00000000       0.00000000       4.88303030       0.00000000       0.00000000      -0.20425525
2
Properties=species:S:1:pos:R:3:forces:R:3 energy=-7.332963355722492 pbc="F F F"
Ta       0.00000000       0.00000000       0.00000000       0.00000000       0.00000000       0.18392637
Ta       0.00000000       0.00000000       4.94181818       0.00000000       0.00000000      -0.18392637
2
Properties=species:S:1:pos:R:3:forces:R:3 energy=-7.3226490058639575 pbc="F F F"
Ta       0.00000000       0.00000000       0.00000000       0.00000000       0.00000000       0.16762690
Ta       0.00000000       0.00000000       5.00060606       0.00000000       0.00000000      -0.16762690
2
Properties=species:S:1:pos:R:3:forces:R:3 energy=-7.313178736200922 pbc="F F F"
Ta       0.00000000       0.00000000       0.00000000       0.00000000       0.00000000       0.15496428
Ta       0.00000000       0.00000000       5.05939394       0.00000000       0.00000000      -0.15496428
2
Properties=species:S:1:pos:R:3:forces:R:3 energy=-7.304368296721741 pbc="F F F"
Ta       0.00000000       0.00000000       0.00000000       0.00000000       0.00000000       0.14526674
Ta       0.00000000       0.00000000       5.11818182       0.00000000       0.00000000      -0.14526674
2
Properties=species:S:1:pos:R:3:forces:R:3 energy=-7.296064002510227 pbc="F F F"
Ta       0.00000000       0.00000000       0.00000000       0.00000000       0.00000000       0.13761520
Ta       0.00000000       0.00000000       5.17696970       0.00000000       0.00000000      -0.13761520
2
Properties=species:S:1:pos:R:3:forces:R:3 energy=-7.288169373270066 pbc="F F F"
Ta       0.00000000       0.00000000       0.00000000       0.00000000       0.00000000       0.13091575
Ta       0.00000000       0.00000000       5.23575758       0.00000000       0.00000000      -0.13091575
2
Properties=species:S:1:pos:R:3:forces:R:3 energy=-7.2806736770300455 pbc="F F F"
Ta       0.00000000       0.00000000       0.00000000       0.00000000       0.00000000       0.12405787
Ta       0.00000000       0.00000000       5.29454545       0.00000000       0.00000000      -0.12405787
2
Properties=species:S:1:pos:R:3:forces:R:3 energy=-7.273606103091711 pbc="F F F"
Ta       0.00000000       0.00000000       0.00000000       0.00000000       0.00000000       0.11610661
Ta       0.00000000       0.00000000       5.35333333       0.00000000       0.00000000      -0.11610661
2
Properties=species:S:1:pos:R:3:forces:R:3 energy=-7.267054740481031 pbc="F F F"
Ta       0.00000000       0.00000000       0.00000000       0.00000000       0.00000000       0.10645834
Ta       0.00000000       0.00000000       5.41212121       0.00000000       0.00000000      -0.10645834
2
Properties=species:S:1:pos:R:3:forces:R:3 energy=-7.2611265204592845 pbc="F F F"
Ta       0.00000000       0.00000000       0.00000000       0.00000000       0.00000000       0.09497459
Ta       0.00000000       0.00000000       5.47090909       0.00000000       0.00000000      -0.09497459
2
Properties=species:S:1:pos:R:3:forces:R:3 energy=-7.255918552440595 pbc="F F F"
Ta       0.00000000       0.00000000       0.00000000       0.00000000       0.00000000       0.08197439
Ta       0.00000000       0.00000000       5.52969697       0.00000000       0.00000000      -0.08197439
2
Properties=species:S:1:pos:R:3:forces:R:3 energy=-7.2515008913299654 pbc="F F F"
Ta       0.00000000       0.00000000       0.00000000       0.00000000       0.00000000       0.06819580
Ta       0.00000000       0.00000000       5.58848485       0.00000000       0.00000000      -0.06819580
2
Properties=species:S:1:pos:R:3:forces:R:3 energy=-7.247897511554288 pbc="F F F"
Ta       0.00000000       0.00000000       0.00000000       0.00000000       0.00000000       0.05463098
Ta       0.00000000       0.00000000       5.64727273       0.00000000       0.00000000      -0.05463098
2
Properties=species:S:1:pos:R:3:forces:R:3 energy=-7.245053802940027 pbc="F F F"
Ta       0.00000000       0.00000000       0.00000000       0.00000000       0.00000000       0.04234705
Ta       0.00000000       0.00000000       5.70606061       0.00000000       0.00000000      -0.04234705
2
Properties=species:S:1:pos:R:3:forces:R:3 energy=-7.242874714518057 pbc="F F F"
Ta       0.00000000       0.00000000       0.00000000       0.00000000       0.00000000       0.03223763
Ta       0.00000000       0.00000000       5.76484848       0.00000000       0.00000000      -0.03223763
2
Properties=species:S:1:pos:R:3:forces:R:3 energy=-7.241209586017531 pbc="F F F"
Ta       0.00000000       0.00000000       0.00000000       0.00000000       0.00000000       0.02488250
Ta       0.00000000       0.00000000       5.82363636       0.00000000       0.00000000      -0.02488250
2
Properties=species:S:1:pos:R:3:forces:R:3 energy=-7.239893979655091 pbc="F F F"
Ta       0.00000000       0.00000000       0.00000000       0.00000000       0.00000000       0.02034053
Ta       0.00000000       0.00000000       5.88242424       0.00000000       0.00000000      -0.02034053
2
Properties=species:S:1:pos:R:3:forces:R:3 energy=-7.238770779763165 pbc="F F F"
Ta       0.00000000       0.00000000       0.00000000       0.00000000       0.00000000       0.01812615
Ta       0.00000000       0.00000000       5.94121212       0.00000000       0.00000000      -0.01812615
2
Properties=species:S:1:pos:R:3:forces:R:3 energy=-7.237734042801583 pbc="F F F"
Ta       0.00000000       0.00000000       0.00000000       0.00000000       0.00000000       0.01725321
Ta       0.00000000       0.00000000       6.00000000       0.00000000       0.00000000      -0.01725321
