2
Properties=species:S:1:pos:R:3:forces:R:3 energy=-10163416.111394413 pbc="F F F"
Tb       0.00000000       0.00000000       0.00000000       0.00000000       0.00000000 105853480.00000000
Tb       0.00000000       0.00000000       0.18000000       0.00000000       0.00000000 -105853480.00000000
2
Properties=species:S:1:pos:R:3:forces:R:3 energy=-4874029.111394413 pbc="F F F"
Tb       0.00000000       0.00000000       0.00000000       0.00000000       0.00000000 71921048.00000000
Tb       0.00000000       0.00000000       0.23878788       0.00000000       0.00000000 -71921048.00000000
2
Properties=species:S:1:pos:R:3:forces:R:3 energy=-1744351.986394413 pbc="F F F"
Tb       0.00000000       0.00000000       0.00000000       0.00000000       0.00000000 35868616.00000000
Tb       0.00000000       0.00000000       0.29757576       0.00000000       0.00000000 -35868616.00000000
2
Properties=species:S:1:pos:R:3:forces:R:3 energy=-402769.8926444131 pbc="F F F"
Tb       0.00000000       0.00000000       0.00000000       0.00000000       0.00000000 12058094.00000000
Tb       0.00000000       0.00000000       0.35636364       0.00000000       0.00000000 -12058094.00000000
2
Properties=species:S:1:pos:R:3:forces:R:3 energy=-43563.041081913085 pbc="F F F"
Tb       0.00000000       0.00000000       0.00000000       0.00000000       0.00000000 2349190.00000000
Tb       0.00000000       0.00000000       0.41515152       0.00000000       0.00000000 -2349190.00000000
2
Properties=species:S:1:pos:R:3:forces:R:3 energy=-117.5547766762676 pbc="F F F"
Tb       0.00000000       0.00000000       0.00000000       0.00000000       0.00000000    1318.79443359
Tb       0.00000000       0.00000000       0.47393939       0.00000000       0.00000000   -1318.79443359
2
Properties=species:S:1:pos:R:3:forces:R:3 energy=-52.394864541550014 pbc="F F F"
Tb       0.00000000       0.00000000       0.00000000       0.00000000       0.00000000     892.63653564
Tb       0.00000000       0.00000000       0.53272727       0.00000000       0.00000000    -892.63653564
2
Properties=species:S:1:pos:R:3:forces:R:3 energy=208.09499601846053 pbc="F F F"
Tb       0.00000000       0.00000000       0.00000000       0.00000000       0.00000000    9154.17285156
Tb       0.00000000       0.00000000       0.59151515       0.00000000       0.00000000   -9154.17285156
2
Properties=species:S:1:pos:R:3:forces:R:3 energy=410.47780855647443 pbc="F F F"
Tb       0.00000000       0.00000000       0.00000000       0.00000000       0.00000000    -338.20263672
Tb       0.00000000       0.00000000       0.65030303       0.00000000       0.00000000     338.20263672
2
Properties=species:S:1:pos:R:3:forces:R:3 energy=388.64837135130017 pbc="F F F"
Tb       0.00000000       0.00000000       0.00000000       0.00000000       0.00000000    -621.92486572
Tb       0.00000000       0.00000000       0.70909091       0.00000000       0.00000000     621.92486572
2
Properties=species:S:1:pos:R:3:forces:R:3 energy=305.6910960493742 pbc="F F F"
Tb       0.00000000       0.00000000       0.00000000       0.00000000       0.00000000   -1306.55688477
Tb       0.00000000       0.00000000       0.76787879       0.00000000       0.00000000    1306.55688477
2
Properties=species:S:1:pos:R:3:forces:R:3 energy=317.27004516336774 pbc="F F F"
Tb       0.00000000       0.00000000       0.00000000       0.00000000       0.00000000     140.40341187
Tb       0.00000000       0.00000000       0.82666667       0.00000000       0.00000000    -140.40341187
2
Properties=species:S:1:pos:R:3:forces:R:3 energy=293.6009169481396 pbc="F F F"
Tb       0.00000000       0.00000000       0.00000000       0.00000000       0.00000000    -632.97839355
Tb       0.00000000       0.00000000       0.88545455       0.00000000       0.00000000     632.97839355
2
Properties=species:S:1:pos:R:3:forces:R:3 energy=242.67092453845544 pbc="F F F"
Tb       0.00000000       0.00000000       0.00000000       0.00000000       0.00000000   -1029.59606934
Tb       0.00000000       0.00000000       0.94424242       0.00000000       0.00000000    1029.59606934
2
Properties=species:S:1:pos:R:3:forces:R:3 energy=181.08857323402378 pbc="F F F"
Tb       0.00000000       0.00000000       0.00000000       0.00000000       0.00000000   -1015.97308350
Tb       0.00000000       0.00000000       1.00303030       0.00000000       0.00000000    1015.97308350
2
Properties=species:S:1:pos:R:3:forces:R:3 energy=132.12197521746185 pbc="F F F"
Tb       0.00000000       0.00000000       0.00000000       0.00000000       0.00000000    -684.66302490
Tb       0.00000000       0.00000000       1.06181818       0.00000000       0.00000000     684.66302490
2
Properties=species:S:1:pos:R:3:forces:R:3 energy=96.23537922202392 pbc="F F F"
Tb       0.00000000       0.00000000       0.00000000       0.00000000       0.00000000    -516.97406006
Tb       0.00000000       0.00000000       1.12060606       0.00000000       0.00000000     516.97406006
2
Properties=species:S:1:pos:R:3:forces:R:3 energy=71.4045848082569 pbc="F F F"
Tb       0.00000000       0.00000000       0.00000000       0.00000000       0.00000000    -326.72265625
Tb       0.00000000       0.00000000       1.17939394       0.00000000       0.00000000     326.72265625
2
Properties=species:S:1:pos:R:3:forces:R:3 energy=55.71018134662209 pbc="F F F"
Tb       0.00000000       0.00000000       0.00000000       0.00000000       0.00000000    -216.06741333
Tb       0.00000000       0.00000000       1.23818182       0.00000000       0.00000000     216.06741333
2
Properties=species:S:1:pos:R:3:forces:R:3 energy=44.90204300279489 pbc="F F F"
Tb       0.00000000       0.00000000       0.00000000       0.00000000       0.00000000    -159.67189026
Tb       0.00000000       0.00000000       1.29696970       0.00000000       0.00000000     159.67189026
2
Properties=species:S:1:pos:R:3:forces:R:3 energy=36.666006632123924 pbc="F F F"
Tb       0.00000000       0.00000000       0.00000000       0.00000000       0.00000000    -124.25598907
Tb       0.00000000       0.00000000       1.35575758       0.00000000       0.00000000     124.25598907
2
Properties=species:S:1:pos:R:3:forces:R:3 energy=29.76569460724376 pbc="F F F"
Tb       0.00000000       0.00000000       0.00000000       0.00000000       0.00000000    -110.51605988
Tb       0.00000000       0.00000000       1.41454545       0.00000000       0.00000000     110.51605988
2
Properties=species:S:1:pos:R:3:forces:R:3 energy=23.911560050300682 pbc="F F F"
Tb       0.00000000       0.00000000       0.00000000       0.00000000       0.00000000     -86.39710236
Tb       0.00000000       0.00000000       1.47333333       0.00000000       0.00000000      86.39710236
2
Properties=species:S:1:pos:R:3:forces:R:3 energy=19.61587495643981 pbc="F F F"
Tb       0.00000000       0.00000000       0.00000000       0.00000000       0.00000000     -62.10159683
Tb       0.00000000       0.00000000       1.53212121       0.00000000       0.00000000      62.10159683
2
Properties=species:S:1:pos:R:3:forces:R:3 energy=16.379409983207815 pbc="F F F"
Tb       0.00000000       0.00000000       0.00000000       0.00000000       0.00000000     -49.66882324
Tb       0.00000000       0.00000000       1.59090909       0.00000000       0.00000000      49.66882324
2
Properties=species:S:1:pos:R:3:forces:R:3 energy=13.705036834040726 pbc="F F F"
Tb       0.00000000       0.00000000       0.00000000       0.00000000       0.00000000     -40.58578110
Tb       0.00000000       0.00000000       1.64969697       0.00000000       0.00000000      40.58578110
2
Properties=species:S:1:pos:R:3:forces:R:3 energy=11.493884391901037 pbc="F F F"
Tb       0.00000000       0.00000000       0.00000000       0.00000000       0.00000000     -35.58488083
Tb       0.00000000       0.00000000       1.70848485       0.00000000       0.00000000      35.58488083
2
Properties=species:S:1:pos:R:3:forces:R:3 energy=9.568846968575171 pbc="F F F"
Tb       0.00000000       0.00000000       0.00000000       0.00000000       0.00000000     -29.74019241
Tb       0.00000000       0.00000000       1.76727273       0.00000000       0.00000000      29.74019241
2
Properties=species:S:1:pos:R:3:forces:R:3 energy=7.958687546172686 pbc="F F F"
Tb       0.00000000       0.00000000       0.00000000       0.00000000       0.00000000     -25.01263046
Tb       0.00000000       0.00000000       1.82606061       0.00000000       0.00000000      25.01263046
2
Properties=species:S:1:pos:R:3:forces:R:3 energy=6.595838565473263 pbc="F F F"
Tb       0.00000000       0.00000000       0.00000000       0.00000000       0.00000000     -21.64773560
Tb       0.00000000       0.00000000       1.88484848       0.00000000       0.00000000      21.64773560
2
Properties=species:S:1:pos:R:3:forces:R:3 energy=5.382872873724746 pbc="F F F"
Tb       0.00000000       0.00000000       0.00000000       0.00000000       0.00000000     -19.73194695
Tb       0.00000000       0.00000000       1.94363636       0.00000000       0.00000000      19.73194695
2
Properties=species:S:1:pos:R:3:forces:R:3 energy=4.276215488172825 pbc="F F F"
Tb       0.00000000       0.00000000       0.00000000       0.00000000       0.00000000     -17.84427834
Tb       0.00000000       0.00000000       2.00242424       0.00000000       0.00000000      17.84427834
2
Properties=species:S:1:pos:R:3:forces:R:3 energy=3.2849533471577237 pbc="F F F"
Tb       0.00000000       0.00000000       0.00000000       0.00000000       0.00000000     -15.89798546
Tb       0.00000000       0.00000000       2.06121212       0.00000000       0.00000000      15.89798546
2
Properties=species:S:1:pos:R:3:forces:R:3 energy=2.4176316893366554 pbc="F F F"
Tb       0.00000000       0.00000000       0.00000000       0.00000000       0.00000000     -13.49905300
Tb       0.00000000       0.00000000       2.12000000       0.00000000       0.00000000      13.49905300
2
Properties=species:S:1:pos:R:3:forces:R:3 energy=1.6917775721203476 pbc="F F F"
Tb       0.00000000       0.00000000       0.00000000       0.00000000       0.00000000     -11.36699772
Tb       0.00000000       0.00000000       2.17878788       0.00000000       0.00000000      11.36699772
2
Properties=species:S:1:pos:R:3:forces:R:3 energy=1.0698872048230423 pbc="F F F"
Tb       0.00000000       0.00000000       0.00000000       0.00000000       0.00000000      -9.80143452
Tb       0.00000000       0.00000000       2.23757576       0.00000000       0.00000000       9.80143452
2
Properties=species:S:1:pos:R:3:forces:R:3 energy=0.536215905989839 pbc="F F F"
Tb       0.00000000       0.00000000       0.00000000       0.00000000       0.00000000      -8.38504028
Tb       0.00000000       0.00000000       2.29636364       0.00000000       0.00000000       8.38504028
2
Properties=species:S:1:pos:R:3:forces:R:3 energy=0.0817863178002102 pbc="F F F"
Tb       0.00000000       0.00000000       0.00000000       0.00000000       0.00000000      -7.10933256
Tb       0.00000000       0.00000000       2.35515152       0.00000000       0.00000000       7.10933256
2
Properties=species:S:1:pos:R:3:forces:R:3 energy=-0.3058702938961579 pbc="F F F"
Tb       0.00000000       0.00000000       0.00000000       0.00000000       0.00000000      -6.12151480
Tb       0.00000000       0.00000000       2.41393939       0.00000000       0.00000000       6.12151480
2
Properties=species:S:1:pos:R:3:forces:R:3 energy=-0.6406368735617892 pbc="F F F"
Tb       0.00000000       0.00000000       0.00000000       0.00000000       0.00000000      -5.28019428
Tb       0.00000000       0.00000000       2.47272727       0.00000000       0.00000000       5.28019428
2
Properties=species:S:1:pos:R:3:forces:R:3 energy=-0.9273955367758112 pbc="F F F"
Tb       0.00000000       0.00000000       0.00000000       0.00000000       0.00000000      -4.48251295
Tb       0.00000000       0.00000000       2.53151515       0.00000000       0.00000000       4.48251295
2
Properties=species:S:1:pos:R:3:forces:R:3 energy=-1.1705744374714535 pbc="F F F"
Tb       0.00000000       0.00000000       0.00000000       0.00000000       0.00000000      -3.83022976
Tb       0.00000000       0.00000000       2.59030303       0.00000000       0.00000000       3.83022976
2
Properties=species:S:1:pos:R:3:forces:R:3 energy=-1.3819954271728685 pbc="F F F"
Tb       0.00000000       0.00000000       0.00000000       0.00000000       0.00000000      -3.38613439
Tb       0.00000000       0.00000000       2.64909091       0.00000000       0.00000000       3.38613439
2
Properties=species:S:1:pos:R:3:forces:R:3 energy=-1.5697266952948339 pbc="F F F"
Tb       0.00000000       0.00000000       0.00000000       0.00000000       0.00000000      -2.99762511
Tb       0.00000000       0.00000000       2.70787879       0.00000000       0.00000000       2.99762511
2
Properties=species:S:1:pos:R:3:forces:R:3 energy=-1.7336069981778177 pbc="F F F"
Tb       0.00000000       0.00000000       0.00000000       0.00000000       0.00000000      -2.57123709
Tb       0.00000000       0.00000000       2.76666667       0.00000000       0.00000000       2.57123709
2
Properties=species:S:1:pos:R:3:forces:R:3 energy=-1.8718348483658003 pbc="F F F"
Tb       0.00000000       0.00000000       0.00000000       0.00000000       0.00000000      -2.13452625
Tb       0.00000000       0.00000000       2.82545455       0.00000000       0.00000000       2.13452625
2
Properties=species:S:1:pos:R:3:forces:R:3 energy=-1.9853865836032591 pbc="F F F"
Tb       0.00000000       0.00000000       0.00000000       0.00000000       0.00000000      -1.73801887
Tb       0.00000000       0.00000000       2.88424242       0.00000000       0.00000000       1.73801887
2
Properties=species:S:1:pos:R:3:forces:R:3 energy=-2.0773681090544955 pbc="F F F"
Tb       0.00000000       0.00000000       0.00000000       0.00000000       0.00000000      -1.40095592
Tb       0.00000000       0.00000000       2.94303030       0.00000000       0.00000000       1.40095592
2
Properties=species:S:1:pos:R:3:forces:R:3 energy=-2.151071195005201 pbc="F F F"
Tb       0.00000000       0.00000000       0.00000000       0.00000000       0.00000000      -1.11292541
Tb       0.00000000       0.00000000       3.00181818       0.00000000       0.00000000       1.11292541
2
Properties=species:S:1:pos:R:3:forces:R:3 energy=-2.2088424064519105 pbc="F F F"
Tb       0.00000000       0.00000000       0.00000000       0.00000000       0.00000000      -0.85727853
Tb       0.00000000       0.00000000       3.06060606       0.00000000       0.00000000       0.85727853
2
Properties=species:S:1:pos:R:3:forces:R:3 energy=-2.2524817896514167 pbc="F F F"
Tb       0.00000000       0.00000000       0.00000000       0.00000000       0.00000000      -0.63333368
Tb       0.00000000       0.00000000       3.11939394       0.00000000       0.00000000       0.63333368
2
Properties=species:S:1:pos:R:3:forces:R:3 energy=-2.2840781767803424 pbc="F F F"
Tb       0.00000000       0.00000000       0.00000000       0.00000000       0.00000000      -0.44839913
Tb       0.00000000       0.00000000       3.17818182       0.00000000       0.00000000       0.44839913
2
Properties=species:S:1:pos:R:3:forces:R:3 energy=-2.305970288028786 pbc="F F F"
Tb       0.00000000       0.00000000       0.00000000       0.00000000       0.00000000      -0.30224481
Tb       0.00000000       0.00000000       3.23696970       0.00000000       0.00000000       0.30224481
2
Properties=species:S:1:pos:R:3:forces:R:3 energy=-2.320191465064978 pbc="F F F"
Tb       0.00000000       0.00000000       0.00000000       0.00000000       0.00000000      -0.18561648
Tb       0.00000000       0.00000000       3.29575758       0.00000000       0.00000000       0.18561648
2
Properties=species:S:1:pos:R:3:forces:R:3 energy=-2.3281560262267815 pbc="F F F"
Tb       0.00000000       0.00000000       0.00000000       0.00000000       0.00000000      -0.08783654
Tb       0.00000000       0.00000000       3.35454545       0.00000000       0.00000000       0.08783654
2
Properties=species:S:1:pos:R:3:forces:R:3 energy=-2.330775614788294 pbc="F F F"
Tb       0.00000000       0.00000000       0.00000000       0.00000000       0.00000000      -0.00308053
Tb       0.00000000       0.00000000       3.41333333       0.00000000       0.00000000       0.00308053
2
Properties=species:S:1:pos:R:3:forces:R:3 energy=-2.3287176320283027 pbc="F F F"
Tb       0.00000000       0.00000000       0.00000000       0.00000000       0.00000000       0.07174751
Tb       0.00000000       0.00000000       3.47212121       0.00000000       0.00000000      -0.07174751
2
Properties=species:S:1:pos:R:3:forces:R:3 energy=-2.3224595586524575 pbc="F F F"
Tb       0.00000000       0.00000000       0.00000000       0.00000000       0.00000000       0.14042933
Tb       0.00000000       0.00000000       3.53090909       0.00000000       0.00000000      -0.14042933
2
Properties=species:S:1:pos:R:3:forces:R:3 energy=-2.312264323987792 pbc="F F F"
Tb       0.00000000       0.00000000       0.00000000       0.00000000       0.00000000       0.20599169
Tb       0.00000000       0.00000000       3.58969697       0.00000000       0.00000000      -0.20599169
2
Properties=species:S:1:pos:R:3:forces:R:3 energy=-2.2982917845074375 pbc="F F F"
Tb       0.00000000       0.00000000       0.00000000       0.00000000       0.00000000       0.26876852
Tb       0.00000000       0.00000000       3.64848485       0.00000000       0.00000000      -0.26876852
2
Properties=species:S:1:pos:R:3:forces:R:3 energy=-2.2807474590101156 pbc="F F F"
Tb       0.00000000       0.00000000       0.00000000       0.00000000       0.00000000       0.32722053
Tb       0.00000000       0.00000000       3.70727273       0.00000000       0.00000000      -0.32722053
2
Properties=species:S:1:pos:R:3:forces:R:3 energy=-2.2599351200917144 pbc="F F F"
Tb       0.00000000       0.00000000       0.00000000       0.00000000       0.00000000       0.37978154
Tb       0.00000000       0.00000000       3.76606061       0.00000000       0.00000000      -0.37978154
2
Properties=species:S:1:pos:R:3:forces:R:3 energy=-2.2362251771730293 pbc="F F F"
Tb       0.00000000       0.00000000       0.00000000       0.00000000       0.00000000       0.42571098
Tb       0.00000000       0.00000000       3.82484848       0.00000000       0.00000000      -0.42571098
2
Properties=species:S:1:pos:R:3:forces:R:3 energy=-2.21001473622007 pbc="F F F"
Tb       0.00000000       0.00000000       0.00000000       0.00000000       0.00000000       0.46492705
Tb       0.00000000       0.00000000       3.88363636       0.00000000       0.00000000      -0.46492705
2
Properties=species:S:1:pos:R:3:forces:R:3 energy=-2.181689446435762 pbc="F F F"
Tb       0.00000000       0.00000000       0.00000000       0.00000000       0.00000000       0.49761480
Tb       0.00000000       0.00000000       3.94242424       0.00000000       0.00000000      -0.49761480
2
Properties=species:S:1:pos:R:3:forces:R:3 energy=-2.1516301949870917 pbc="F F F"
Tb       0.00000000       0.00000000       0.00000000       0.00000000       0.00000000       0.52410001
Tb       0.00000000       0.00000000       4.00121212       0.00000000       0.00000000      -0.52410001
2
Properties=species:S:1:pos:R:3:forces:R:3 energy=-2.120179779089189 pbc="F F F"
Tb       0.00000000       0.00000000       0.00000000       0.00000000       0.00000000       0.54491055
Tb       0.00000000       0.00000000       4.06000000       0.00000000       0.00000000      -0.54491055
2
Properties=species:S:1:pos:R:3:forces:R:3 energy=-2.0876590804548383 pbc="F F F"
Tb       0.00000000       0.00000000       0.00000000       0.00000000       0.00000000       0.56075335
Tb       0.00000000       0.00000000       4.11878788       0.00000000       0.00000000      -0.56075335
2
Properties=species:S:1:pos:R:3:forces:R:3 energy=-2.054331887050727 pbc="F F F"
Tb       0.00000000       0.00000000       0.00000000       0.00000000       0.00000000       0.57231724
Tb       0.00000000       0.00000000       4.17757576       0.00000000       0.00000000      -0.57231724
2
Properties=species:S:1:pos:R:3:forces:R:3 energy=-2.020442105402715 pbc="F F F"
Tb       0.00000000       0.00000000       0.00000000       0.00000000       0.00000000       0.58000094
Tb       0.00000000       0.00000000       4.23636364       0.00000000       0.00000000      -0.58000094
2
Properties=species:S:1:pos:R:3:forces:R:3 energy=-1.9862108488877341 pbc="F F F"
Tb       0.00000000       0.00000000       0.00000000       0.00000000       0.00000000       0.58384657
Tb       0.00000000       0.00000000       4.29515152       0.00000000       0.00000000      -0.58384657
2
Properties=species:S:1:pos:R:3:forces:R:3 energy=-1.951876688460049 pbc="F F F"
Tb       0.00000000       0.00000000       0.00000000       0.00000000       0.00000000       0.58366632
Tb       0.00000000       0.00000000       4.35393939       0.00000000       0.00000000      -0.58366632
2
Properties=species:S:1:pos:R:3:forces:R:3 energy=-1.9176717094230376 pbc="F F F"
Tb       0.00000000       0.00000000       0.00000000       0.00000000       0.00000000       0.57925969
Tb       0.00000000       0.00000000       4.41272727       0.00000000       0.00000000      -0.57925969
2
Properties=species:S:1:pos:R:3:forces:R:3 energy=-1.8838501913507724 pbc="F F F"
Tb       0.00000000       0.00000000       0.00000000       0.00000000       0.00000000       0.57060117
Tb       0.00000000       0.00000000       4.47151515       0.00000000       0.00000000      -0.57060117
2
Properties=species:S:1:pos:R:3:forces:R:3 energy=-1.8506620319200449 pbc="F F F"
Tb       0.00000000       0.00000000       0.00000000       0.00000000       0.00000000       0.55789840
Tb       0.00000000       0.00000000       4.53030303       0.00000000       0.00000000      -0.55789840
2
Properties=species:S:1:pos:R:3:forces:R:3 energy=-1.8183288480316584 pbc="F F F"
Tb       0.00000000       0.00000000       0.00000000       0.00000000       0.00000000       0.54157078
Tb       0.00000000       0.00000000       4.58909091       0.00000000       0.00000000      -0.54157078
2
Properties=species:S:1:pos:R:3:forces:R:3 energy=-1.7870459275085702 pbc="F F F"
Tb       0.00000000       0.00000000       0.00000000       0.00000000       0.00000000       0.52223194
Tb       0.00000000       0.00000000       4.64787879       0.00000000       0.00000000      -0.52223194
2
Properties=species:S:1:pos:R:3:forces:R:3 energy=-1.7569699517070199 pbc="F F F"
Tb       0.00000000       0.00000000       0.00000000       0.00000000       0.00000000       0.50065517
Tb       0.00000000       0.00000000       4.70666667       0.00000000       0.00000000      -0.50065517
2
Properties=species:S:1:pos:R:3:forces:R:3 energy=-1.728202707025419 pbc="F F F"
Tb       0.00000000       0.00000000       0.00000000       0.00000000       0.00000000       0.47777548
Tb       0.00000000       0.00000000       4.76545455       0.00000000       0.00000000      -0.47777548
2
Properties=species:S:1:pos:R:3:forces:R:3 energy=-1.7007988410117683 pbc="F F F"
Tb       0.00000000       0.00000000       0.00000000       0.00000000       0.00000000       0.45462850
Tb       0.00000000       0.00000000       4.82424242       0.00000000       0.00000000      -0.45462850
2
Properties=species:S:1:pos:R:3:forces:R:3 energy=-1.6747381614589718 pbc="F F F"
Tb       0.00000000       0.00000000       0.00000000       0.00000000       0.00000000       0.43223614
Tb       0.00000000       0.00000000       4.88303030       0.00000000       0.00000000      -0.43223614
2
Properties=species:S:1:pos:R:3:forces:R:3 energy=-1.6499494909340358 pbc="F F F"
Tb       0.00000000       0.00000000       0.00000000       0.00000000       0.00000000       0.41141626
Tb       0.00000000       0.00000000       4.94181818       0.00000000       0.00000000      -0.41141626
2
Properties=species:S:1:pos:R:3:forces:R:3 energy=-1.6263240118828535 pbc="F F F"
Tb       0.00000000       0.00000000       0.00000000       0.00000000       0.00000000       0.39257279
Tb       0.00000000       0.00000000       5.00060606       0.00000000       0.00000000      -0.39257279
2
Properties=species:S:1:pos:R:3:forces:R:3 energy=-1.6037525803057873 pbc="F F F"
Tb       0.00000000       0.00000000       0.00000000       0.00000000       0.00000000       0.37553376
Tb       0.00000000       0.00000000       5.05939394       0.00000000       0.00000000      -0.37553376
2
Properties=species:S:1:pos:R:3:forces:R:3 energy=-1.5821493395323842 pbc="F F F"
Tb       0.00000000       0.00000000       0.00000000       0.00000000       0.00000000       0.35952109
Tb       0.00000000       0.00000000       5.11818182       0.00000000       0.00000000      -0.35952109
2
Properties=species:S:1:pos:R:3:forces:R:3 energy=-1.5614890592395336 pbc="F F F"
Tb       0.00000000       0.00000000       0.00000000       0.00000000       0.00000000       0.34326330
Tb       0.00000000       0.00000000       5.17696970       0.00000000       0.00000000      -0.34326330
2
Properties=species:S:1:pos:R:3:forces:R:3 energy=-1.5418270042210058 pbc="F F F"
Tb       0.00000000       0.00000000       0.00000000       0.00000000       0.00000000       0.32527497
Tb       0.00000000       0.00000000       5.23575758       0.00000000       0.00000000      -0.32527497
2
Properties=species:S:1:pos:R:3:forces:R:3 energy=-1.5233095135039516 pbc="F F F"
Tb       0.00000000       0.00000000       0.00000000       0.00000000       0.00000000       0.30417463
Tb       0.00000000       0.00000000       5.29454545       0.00000000       0.00000000      -0.30417463
2
Properties=species:S:1:pos:R:3:forces:R:3 energy=-1.5061442717183422 pbc="F F F"
Tb       0.00000000       0.00000000       0.00000000       0.00000000       0.00000000       0.27905673
Tb       0.00000000       0.00000000       5.35333333       0.00000000       0.00000000      -0.27905673
2
Properties=species:S:1:pos:R:3:forces:R:3 energy=-1.4905763975469717 pbc="F F F"
Tb       0.00000000       0.00000000       0.00000000       0.00000000       0.00000000       0.24972831
Tb       0.00000000       0.00000000       5.41212121       0.00000000       0.00000000      -0.24972831
2
Properties=species:S:1:pos:R:3:forces:R:3 energy=-1.4768502967528017 pbc="F F F"
Tb       0.00000000       0.00000000       0.00000000       0.00000000       0.00000000       0.21685977
Tb       0.00000000       0.00000000       5.47090909       0.00000000       0.00000000      -0.21685977
2
Properties=species:S:1:pos:R:3:forces:R:3 energy=-1.4651227891171468 pbc="F F F"
Tb       0.00000000       0.00000000       0.00000000       0.00000000       0.00000000       0.18188196
Tb       0.00000000       0.00000000       5.52969697       0.00000000       0.00000000      -0.18188196
2
Properties=species:S:1:pos:R:3:forces:R:3 energy=-1.4554667394032568 pbc="F F F"
Tb       0.00000000       0.00000000       0.00000000       0.00000000       0.00000000       0.14682588
Tb       0.00000000       0.00000000       5.58848485       0.00000000       0.00000000      -0.14682588
2
Properties=species:S:1:pos:R:3:forces:R:3 energy=-1.4478158836301391 pbc="F F F"
Tb       0.00000000       0.00000000       0.00000000       0.00000000       0.00000000       0.11398330
Tb       0.00000000       0.00000000       5.64727273       0.00000000       0.00000000      -0.11398330
2
Properties=species:S:1:pos:R:3:forces:R:3 energy=-1.441977870066418 pbc="F F F"
Tb       0.00000000       0.00000000       0.00000000       0.00000000       0.00000000       0.08550224
Tb       0.00000000       0.00000000       5.70606061       0.00000000       0.00000000      -0.08550224
2
Properties=species:S:1:pos:R:3:forces:R:3 energy=-1.4376438466586532 pbc="F F F"
Tb       0.00000000       0.00000000       0.00000000       0.00000000       0.00000000       0.06298634
Tb       0.00000000       0.00000000       5.76484848       0.00000000       0.00000000      -0.06298634
2
Properties=species:S:1:pos:R:3:forces:R:3 energy=-1.43443614474716 pbc="F F F"
Tb       0.00000000       0.00000000       0.00000000       0.00000000       0.00000000       0.04726982
Tb       0.00000000       0.00000000       5.82363636       0.00000000       0.00000000      -0.04726982
2
Properties=species:S:1:pos:R:3:forces:R:3 energy=-1.4319604967345727 pbc="F F F"
Tb       0.00000000       0.00000000       0.00000000       0.00000000       0.00000000       0.03807908
Tb       0.00000000       0.00000000       5.88242424       0.00000000       0.00000000      -0.03807908
2
Properties=species:S:1:pos:R:3:forces:R:3 energy=-1.4298604873887222 pbc="F F F"
Tb       0.00000000       0.00000000       0.00000000       0.00000000       0.00000000       0.03407896
Tb       0.00000000       0.00000000       5.94121212       0.00000000       0.00000000      -0.03407896
2
Properties=species:S:1:pos:R:3:forces:R:3 energy=-1.427895669605383 pbc="F F F"
Tb       0.00000000       0.00000000       0.00000000       0.00000000       0.00000000       0.03298599
Tb       0.00000000       0.00000000       6.00000000       0.00000000       0.00000000      -0.03298599
