2
Properties=species:S:1:pos:R:3:forces:R:3 energy=440903231.92251265 pbc="F F F"
Tc       0.00000000       0.00000000       0.00000000       0.00000000       0.00000000 -2122574848.00000000
Tc       0.00000000       0.00000000       0.10000000       0.00000000       0.00000000 2122574848.00000000
2
Properties=species:S:1:pos:R:3:forces:R:3 energy=303228991.92251265 pbc="F F F"
Tc       0.00000000       0.00000000       0.00000000       0.00000000       0.00000000 -2354832384.00000000
Tc       0.00000000       0.00000000       0.15959596       0.00000000       0.00000000 2354832384.00000000
2
Properties=species:S:1:pos:R:3:forces:R:3 energy=174358975.92251268 pbc="F F F"
Tc       0.00000000       0.00000000       0.00000000       0.00000000       0.00000000 -1886300416.00000000
Tc       0.00000000       0.00000000       0.21919192       0.00000000       0.00000000 1886300416.00000000
2
Properties=species:S:1:pos:R:3:forces:R:3 energy=83388455.92251268 pbc="F F F"
Tc       0.00000000       0.00000000       0.00000000       0.00000000       0.00000000 -1163080192.00000000
Tc       0.00000000       0.00000000       0.27878788       0.00000000       0.00000000 1163080192.00000000
2
Properties=species:S:1:pos:R:3:forces:R:3 energy=33066081.92251268 pbc="F F F"
Tc       0.00000000       0.00000000       0.00000000       0.00000000       0.00000000 -564400960.00000000
Tc       0.00000000       0.00000000       0.33838384       0.00000000       0.00000000 564400960.00000000
2
Properties=species:S:1:pos:R:3:forces:R:3 energy=11011043.922512688 pbc="F F F"
Tc       0.00000000       0.00000000       0.00000000       0.00000000       0.00000000 -219825488.00000000
Tc       0.00000000       0.00000000       0.39797980       0.00000000       0.00000000 219825488.00000000
2
Properties=species:S:1:pos:R:3:forces:R:3 energy=3007802.922512707 pbc="F F F"
Tc       0.00000000       0.00000000       0.00000000       0.00000000       0.00000000 -69701632.00000000
Tc       0.00000000       0.00000000       0.45757576       0.00000000       0.00000000 69701632.00000000
2
Properties=species:S:1:pos:R:3:forces:R:3 energy=727612.2350127387 pbc="F F F"
Tc       0.00000000       0.00000000       0.00000000       0.00000000       0.00000000 -18413278.00000000
Tc       0.00000000       0.00000000       0.51717172       0.00000000       0.00000000 18413278.00000000
2
Properties=species:S:1:pos:R:3:forces:R:3 energy=145158.8443878021 pbc="F F F"
Tc       0.00000000       0.00000000       0.00000000       0.00000000       0.00000000 -4106892.75000000
Tc       0.00000000       0.00000000       0.57676768       0.00000000       0.00000000 4106892.75000000
2
Properties=species:S:1:pos:R:3:forces:R:3 energy=27356.51040352847 pbc="F F F"
Tc       0.00000000       0.00000000       0.00000000       0.00000000       0.00000000 -783027.31250000
Tc       0.00000000       0.00000000       0.63636364       0.00000000       0.00000000  783027.31250000
2
Properties=species:S:1:pos:R:3:forces:R:3 energy=5408.334622443197 pbc="F F F"
Tc       0.00000000       0.00000000       0.00000000       0.00000000       0.00000000 -140965.56250000
Tc       0.00000000       0.00000000       0.69595960       0.00000000       0.00000000  140965.56250000
2
Properties=species:S:1:pos:R:3:forces:R:3 energy=1142.5429967200607 pbc="F F F"
Tc       0.00000000       0.00000000       0.00000000       0.00000000       0.00000000  -27090.77343750
Tc       0.00000000       0.00000000       0.75555556       0.00000000       0.00000000   27090.77343750
2
Properties=species:S:1:pos:R:3:forces:R:3 energy=328.8719155572307 pbc="F F F"
Tc       0.00000000       0.00000000       0.00000000       0.00000000       0.00000000   -5586.68115234
Tc       0.00000000       0.00000000       0.81515152       0.00000000       0.00000000    5586.68115234
2
Properties=species:S:1:pos:R:3:forces:R:3 energy=125.82412558108797 pbc="F F F"
Tc       0.00000000       0.00000000       0.00000000       0.00000000       0.00000000   -1685.00915527
Tc       0.00000000       0.00000000       0.87474747       0.00000000       0.00000000    1685.00915527
2
Properties=species:S:1:pos:R:3:forces:R:3 energy=59.484931108907375 pbc="F F F"
Tc       0.00000000       0.00000000       0.00000000       0.00000000       0.00000000    -780.70861816
Tc       0.00000000       0.00000000       0.93434343       0.00000000       0.00000000     780.70861816
2
Properties=species:S:1:pos:R:3:forces:R:3 energy=26.588981868584092 pbc="F F F"
Tc       0.00000000       0.00000000       0.00000000       0.00000000       0.00000000    -358.39129639
Tc       0.00000000       0.00000000       0.99393939       0.00000000       0.00000000     358.39129639
2
Properties=species:S:1:pos:R:3:forces:R:3 energy=12.323621546229253 pbc="F F F"
Tc       0.00000000       0.00000000       0.00000000       0.00000000       0.00000000    -142.84577942
Tc       0.00000000       0.00000000       1.05353535       0.00000000       0.00000000     142.84577942
2
Properties=species:S:1:pos:R:3:forces:R:3 energy=6.956939543982403 pbc="F F F"
Tc       0.00000000       0.00000000       0.00000000       0.00000000       0.00000000     -52.18407440
Tc       0.00000000       0.00000000       1.11313131       0.00000000       0.00000000      52.18407440
2
Properties=species:S:1:pos:R:3:forces:R:3 energy=4.314272425848324 pbc="F F F"
Tc       0.00000000       0.00000000       0.00000000       0.00000000       0.00000000     -46.18515015
Tc       0.00000000       0.00000000       1.17272727       0.00000000       0.00000000      46.18515015
2
Properties=species:S:1:pos:R:3:forces:R:3 energy=1.6229896967036677 pbc="F F F"
Tc       0.00000000       0.00000000       0.00000000       0.00000000       0.00000000     -42.49753952
Tc       0.00000000       0.00000000       1.23232323       0.00000000       0.00000000      42.49753952
2
Properties=species:S:1:pos:R:3:forces:R:3 energy=-0.641955806313484 pbc="F F F"
Tc       0.00000000       0.00000000       0.00000000       0.00000000       0.00000000     -34.31059647
Tc       0.00000000       0.00000000       1.29191919       0.00000000       0.00000000      34.31059647
2
Properties=species:S:1:pos:R:3:forces:R:3 energy=-2.527946209856265 pbc="F F F"
Tc       0.00000000       0.00000000       0.00000000       0.00000000       0.00000000     -28.35762978
Tc       0.00000000       0.00000000       1.35151515       0.00000000       0.00000000      28.35762978
2
Properties=species:S:1:pos:R:3:forces:R:3 energy=-4.1652140904799575 pbc="F F F"
Tc       0.00000000       0.00000000       0.00000000       0.00000000       0.00000000     -26.80760574
Tc       0.00000000       0.00000000       1.41111111       0.00000000       0.00000000      26.80760574
2
Properties=species:S:1:pos:R:3:forces:R:3 energy=-5.616066508197365 pbc="F F F"
Tc       0.00000000       0.00000000       0.00000000       0.00000000       0.00000000     -21.51897621
Tc       0.00000000       0.00000000       1.47070707       0.00000000       0.00000000      21.51897621
2
Properties=species:S:1:pos:R:3:forces:R:3 energy=-6.748988590635258 pbc="F F F"
Tc       0.00000000       0.00000000       0.00000000       0.00000000       0.00000000     -16.75696373
Tc       0.00000000       0.00000000       1.53030303       0.00000000       0.00000000      16.75696373
2
Properties=species:S:1:pos:R:3:forces:R:3 energy=-7.6226872012342755 pbc="F F F"
Tc       0.00000000       0.00000000       0.00000000       0.00000000       0.00000000     -12.82468796
Tc       0.00000000       0.00000000       1.58989899       0.00000000       0.00000000      12.82468796
2
Properties=species:S:1:pos:R:3:forces:R:3 energy=-8.338553726810545 pbc="F F F"
Tc       0.00000000       0.00000000       0.00000000       0.00000000       0.00000000     -11.39846516
Tc       0.00000000       0.00000000       1.64949495       0.00000000       0.00000000      11.39846516
2
Properties=species:S:1:pos:R:3:forces:R:3 energy=-9.000154834610763 pbc="F F F"
Tc       0.00000000       0.00000000       0.00000000       0.00000000       0.00000000     -10.78897762
Tc       0.00000000       0.00000000       1.70909091       0.00000000       0.00000000      10.78897762
2
Properties=species:S:1:pos:R:3:forces:R:3 energy=-9.607623551194617 pbc="F F F"
Tc       0.00000000       0.00000000       0.00000000       0.00000000       0.00000000      -9.61308479
Tc       0.00000000       0.00000000       1.76868687       0.00000000       0.00000000       9.61308479
2
Properties=species:S:1:pos:R:3:forces:R:3 energy=-10.167858351085755 pbc="F F F"
Tc       0.00000000       0.00000000       0.00000000       0.00000000       0.00000000      -9.09081841
Tc       0.00000000       0.00000000       1.82828283       0.00000000       0.00000000       9.09081841
2
Properties=species:S:1:pos:R:3:forces:R:3 energy=-10.649895929121687 pbc="F F F"
Tc       0.00000000       0.00000000       0.00000000       0.00000000       0.00000000      -7.06785393
Tc       0.00000000       0.00000000       1.88787879       0.00000000       0.00000000       7.06785393
2
Properties=species:S:1:pos:R:3:forces:R:3 energy=-11.010359343688062 pbc="F F F"
Tc       0.00000000       0.00000000       0.00000000       0.00000000       0.00000000      -4.96073389
Tc       0.00000000       0.00000000       1.94747475       0.00000000       0.00000000       4.96073389
2
Properties=species:S:1:pos:R:3:forces:R:3 energy=-11.242604801988866 pbc="F F F"
Tc       0.00000000       0.00000000       0.00000000       0.00000000       0.00000000      -2.91032529
Tc       0.00000000       0.00000000       2.00707071       0.00000000       0.00000000       2.91032529
2
Properties=species:S:1:pos:R:3:forces:R:3 energy=-11.36209957363918 pbc="F F F"
Tc       0.00000000       0.00000000       0.00000000       0.00000000       0.00000000      -1.10440171
Tc       0.00000000       0.00000000       2.06666667       0.00000000       0.00000000       1.10440171
2
Properties=species:S:1:pos:R:3:forces:R:3 energy=-11.378857425383222 pbc="F F F"
Tc       0.00000000       0.00000000       0.00000000       0.00000000       0.00000000       0.50433964
Tc       0.00000000       0.00000000       2.12626263       0.00000000       0.00000000      -0.50433964
2
Properties=species:S:1:pos:R:3:forces:R:3 energy=-11.310096157097048 pbc="F F F"
Tc       0.00000000       0.00000000       0.00000000       0.00000000       0.00000000       1.69733024
Tc       0.00000000       0.00000000       2.18585859       0.00000000       0.00000000      -1.69733024
2
Properties=species:S:1:pos:R:3:forces:R:3 energy=-11.182988394334968 pbc="F F F"
Tc       0.00000000       0.00000000       0.00000000       0.00000000       0.00000000       2.54604340
Tc       0.00000000       0.00000000       2.24545455       0.00000000       0.00000000      -2.54604340
2
Properties=species:S:1:pos:R:3:forces:R:3 energy=-11.013689212412858 pbc="F F F"
Tc       0.00000000       0.00000000       0.00000000       0.00000000       0.00000000       3.06107831
Tc       0.00000000       0.00000000       2.30505051       0.00000000       0.00000000      -3.06107831
2
Properties=species:S:1:pos:R:3:forces:R:3 energy=-10.824572322512969 pbc="F F F"
Tc       0.00000000       0.00000000       0.00000000       0.00000000       0.00000000       3.24726272
Tc       0.00000000       0.00000000       2.36464646       0.00000000       0.00000000      -3.24726272
2
Properties=species:S:1:pos:R:3:forces:R:3 energy=-10.630140340334734 pbc="F F F"
Tc       0.00000000       0.00000000       0.00000000       0.00000000       0.00000000       3.25899839
Tc       0.00000000       0.00000000       2.42424242       0.00000000       0.00000000      -3.25899839
2
Properties=species:S:1:pos:R:3:forces:R:3 energy=-10.438380588624911 pbc="F F F"
Tc       0.00000000       0.00000000       0.00000000       0.00000000       0.00000000       3.15140390
Tc       0.00000000       0.00000000       2.48383838       0.00000000       0.00000000      -3.15140390
2
Properties=species:S:1:pos:R:3:forces:R:3 energy=-10.257034617349921 pbc="F F F"
Tc       0.00000000       0.00000000       0.00000000       0.00000000       0.00000000       2.92274928
Tc       0.00000000       0.00000000       2.54343434       0.00000000       0.00000000      -2.92274928
2
Properties=species:S:1:pos:R:3:forces:R:3 energy=-10.091034687142944 pbc="F F F"
Tc       0.00000000       0.00000000       0.00000000       0.00000000       0.00000000       2.63817263
Tc       0.00000000       0.00000000       2.60303030       0.00000000       0.00000000      -2.63817263
2
Properties=species:S:1:pos:R:3:forces:R:3 energy=-9.943617961252325 pbc="F F F"
Tc       0.00000000       0.00000000       0.00000000       0.00000000       0.00000000       2.30552220
Tc       0.00000000       0.00000000       2.66262626       0.00000000       0.00000000      -2.30552220
2
Properties=species:S:1:pos:R:3:forces:R:3 energy=-9.815824549805619 pbc="F F F"
Tc       0.00000000       0.00000000       0.00000000       0.00000000       0.00000000       1.99182367
Tc       0.00000000       0.00000000       2.72222222       0.00000000       0.00000000      -1.99182367
2
Properties=species:S:1:pos:R:3:forces:R:3 energy=-9.704867361340805 pbc="F F F"
Tc       0.00000000       0.00000000       0.00000000       0.00000000       0.00000000       1.74528253
Tc       0.00000000       0.00000000       2.78181818       0.00000000       0.00000000      -1.74528253
2
Properties=species:S:1:pos:R:3:forces:R:3 energy=-9.60588741317239 pbc="F F F"
Tc       0.00000000       0.00000000       0.00000000       0.00000000       0.00000000       1.59424806
Tc       0.00000000       0.00000000       2.84141414       0.00000000       0.00000000      -1.59424806
2
Properties=species:S:1:pos:R:3:forces:R:3 energy=-9.51293875104754 pbc="F F F"
Tc       0.00000000       0.00000000       0.00000000       0.00000000       0.00000000       1.53641474
Tc       0.00000000       0.00000000       2.90101010       0.00000000       0.00000000      -1.53641474
2
Properties=species:S:1:pos:R:3:forces:R:3 energy=-9.422134290972345 pbc="F F F"
Tc       0.00000000       0.00000000       0.00000000       0.00000000       0.00000000       1.51139963
Tc       0.00000000       0.00000000       2.96060606       0.00000000       0.00000000      -1.51139963
2
Properties=species:S:1:pos:R:3:forces:R:3 energy=-9.332935825844217 pbc="F F F"
Tc       0.00000000       0.00000000       0.00000000       0.00000000       0.00000000       1.48074365
Tc       0.00000000       0.00000000       3.02020202       0.00000000       0.00000000      -1.48074365
2
Properties=species:S:1:pos:R:3:forces:R:3 energy=-9.24576172193683 pbc="F F F"
Tc       0.00000000       0.00000000       0.00000000       0.00000000       0.00000000       1.44356525
Tc       0.00000000       0.00000000       3.07979798       0.00000000       0.00000000      -1.44356525
2
Properties=species:S:1:pos:R:3:forces:R:3 energy=-9.161053312484261 pbc="F F F"
Tc       0.00000000       0.00000000       0.00000000       0.00000000       0.00000000       1.39766932
Tc       0.00000000       0.00000000       3.13939394       0.00000000       0.00000000      -1.39766932
2
Properties=species:S:1:pos:R:3:forces:R:3 energy=-9.079292508331243 pbc="F F F"
Tc       0.00000000       0.00000000       0.00000000       0.00000000       0.00000000       1.34585559
Tc       0.00000000       0.00000000       3.19898990       0.00000000       0.00000000      -1.34585559
2
Properties=species:S:1:pos:R:3:forces:R:3 energy=-9.000620997007857 pbc="F F F"
Tc       0.00000000       0.00000000       0.00000000       0.00000000       0.00000000       1.29453921
Tc       0.00000000       0.00000000       3.25858586       0.00000000       0.00000000      -1.29453921
2
Properties=species:S:1:pos:R:3:forces:R:3 energy=-8.924997906836355 pbc="F F F"
Tc       0.00000000       0.00000000       0.00000000       0.00000000       0.00000000       1.24294305
Tc       0.00000000       0.00000000       3.31818182       0.00000000       0.00000000      -1.24294305
2
Properties=species:S:1:pos:R:3:forces:R:3 energy=-8.852564551079457 pbc="F F F"
Tc       0.00000000       0.00000000       0.00000000       0.00000000       0.00000000       1.18681693
Tc       0.00000000       0.00000000       3.37777778       0.00000000       0.00000000      -1.18681693
2
Properties=species:S:1:pos:R:3:forces:R:3 energy=-8.783675705926486 pbc="F F F"
Tc       0.00000000       0.00000000       0.00000000       0.00000000       0.00000000       1.12386322
Tc       0.00000000       0.00000000       3.43737374       0.00000000       0.00000000      -1.12386322
2
Properties=species:S:1:pos:R:3:forces:R:3 energy=-8.718731068941667 pbc="F F F"
Tc       0.00000000       0.00000000       0.00000000       0.00000000       0.00000000       1.05479848
Tc       0.00000000       0.00000000       3.49696970       0.00000000       0.00000000      -1.05479848
2
Properties=species:S:1:pos:R:3:forces:R:3 energy=-8.658030610694913 pbc="F F F"
Tc       0.00000000       0.00000000       0.00000000       0.00000000       0.00000000       0.98180270
Tc       0.00000000       0.00000000       3.55656566       0.00000000       0.00000000      -0.98180270
2
Properties=species:S:1:pos:R:3:forces:R:3 energy=-8.601757189884545 pbc="F F F"
Tc       0.00000000       0.00000000       0.00000000       0.00000000       0.00000000       0.90639371
Tc       0.00000000       0.00000000       3.61616162       0.00000000       0.00000000      -0.90639371
2
Properties=species:S:1:pos:R:3:forces:R:3 energy=-8.55003709098562 pbc="F F F"
Tc       0.00000000       0.00000000       0.00000000       0.00000000       0.00000000       0.82890862
Tc       0.00000000       0.00000000       3.67575758       0.00000000       0.00000000      -0.82890862
2
Properties=species:S:1:pos:R:3:forces:R:3 energy=-8.502994415364185 pbc="F F F"
Tc       0.00000000       0.00000000       0.00000000       0.00000000       0.00000000       0.74950379
Tc       0.00000000       0.00000000       3.73535354       0.00000000       0.00000000      -0.74950379
2
Properties=species:S:1:pos:R:3:forces:R:3 energy=-8.460723925237998 pbc="F F F"
Tc       0.00000000       0.00000000       0.00000000       0.00000000       0.00000000       0.66905785
Tc       0.00000000       0.00000000       3.79494949       0.00000000       0.00000000      -0.66905785
2
Properties=species:S:1:pos:R:3:forces:R:3 energy=-8.423237384489044 pbc="F F F"
Tc       0.00000000       0.00000000       0.00000000       0.00000000       0.00000000       0.58920920
Tc       0.00000000       0.00000000       3.85454545       0.00000000       0.00000000      -0.58920920
2
Properties=species:S:1:pos:R:3:forces:R:3 energy=-8.390446740986272 pbc="F F F"
Tc       0.00000000       0.00000000       0.00000000       0.00000000       0.00000000       0.51182365
Tc       0.00000000       0.00000000       3.91414141       0.00000000       0.00000000      -0.51182365
2
Properties=species:S:1:pos:R:3:forces:R:3 energy=-8.362150686446146 pbc="F F F"
Tc       0.00000000       0.00000000       0.00000000       0.00000000       0.00000000       0.43848073
Tc       0.00000000       0.00000000       3.97373737       0.00000000       0.00000000      -0.43848073
2
Properties=species:S:1:pos:R:3:forces:R:3 energy=-8.338077730167987 pbc="F F F"
Tc       0.00000000       0.00000000       0.00000000       0.00000000       0.00000000       0.37030131
Tc       0.00000000       0.00000000       4.03333333       0.00000000       0.00000000      -0.37030131
2
Properties=species:S:1:pos:R:3:forces:R:3 energy=-8.317897516412891 pbc="F F F"
Tc       0.00000000       0.00000000       0.00000000       0.00000000       0.00000000       0.30805880
Tc       0.00000000       0.00000000       4.09292929       0.00000000       0.00000000      -0.30805880
2
Properties=species:S:1:pos:R:3:forces:R:3 energy=-8.301232338187607 pbc="F F F"
Tc       0.00000000       0.00000000       0.00000000       0.00000000       0.00000000       0.25232413
Tc       0.00000000       0.00000000       4.15252525       0.00000000       0.00000000      -0.25232413
2
Properties=species:S:1:pos:R:3:forces:R:3 energy=-8.287684654415541 pbc="F F F"
Tc       0.00000000       0.00000000       0.00000000       0.00000000       0.00000000       0.20347834
Tc       0.00000000       0.00000000       4.21212121       0.00000000       0.00000000      -0.20347834
2
Properties=species:S:1:pos:R:3:forces:R:3 energy=-8.276839798904243 pbc="F F F"
Tc       0.00000000       0.00000000       0.00000000       0.00000000       0.00000000       0.16162474
Tc       0.00000000       0.00000000       4.27171717       0.00000000       0.00000000      -0.16162474
2
Properties=species:S:1:pos:R:3:forces:R:3 energy=-8.268285988499116 pbc="F F F"
Tc       0.00000000       0.00000000       0.00000000       0.00000000       0.00000000       0.12652346
Tc       0.00000000       0.00000000       4.33131313       0.00000000       0.00000000      -0.12652346
2
Properties=species:S:1:pos:R:3:forces:R:3 energy=-8.261635953481768 pbc="F F F"
Tc       0.00000000       0.00000000       0.00000000       0.00000000       0.00000000       0.09761027
Tc       0.00000000       0.00000000       4.39090909       0.00000000       0.00000000      -0.09761027
2
Properties=species:S:1:pos:R:3:forces:R:3 energy=-8.256543907302738 pbc="F F F"
Tc       0.00000000       0.00000000       0.00000000       0.00000000       0.00000000       0.07411203
Tc       0.00000000       0.00000000       4.45050505       0.00000000       0.00000000      -0.07411203
2
Properties=species:S:1:pos:R:3:forces:R:3 energy=-8.25270831890542 pbc="F F F"
Tc       0.00000000       0.00000000       0.00000000       0.00000000       0.00000000       0.05519794
Tc       0.00000000       0.00000000       4.51010101       0.00000000       0.00000000      -0.05519794
2
Properties=species:S:1:pos:R:3:forces:R:3 energy=-8.24988955736475 pbc="F F F"
Tc       0.00000000       0.00000000       0.00000000       0.00000000       0.00000000       0.04010994
Tc       0.00000000       0.00000000       4.56969697       0.00000000       0.00000000      -0.04010994
2
Properties=species:S:1:pos:R:3:forces:R:3 energy=-8.24786604821124 pbc="F F F"
Tc       0.00000000       0.00000000       0.00000000       0.00000000       0.00000000       0.02823580
Tc       0.00000000       0.00000000       4.62929293       0.00000000       0.00000000      -0.02823580
2
Properties=species:S:1:pos:R:3:forces:R:3 energy=-8.2464691919133 pbc="F F F"
Tc       0.00000000       0.00000000       0.00000000       0.00000000       0.00000000       0.01911027
Tc       0.00000000       0.00000000       4.68888889       0.00000000       0.00000000      -0.01911027
2
Properties=species:S:1:pos:R:3:forces:R:3 energy=-8.245541307172672 pbc="F F F"
Tc       0.00000000       0.00000000       0.00000000       0.00000000       0.00000000       0.01238000
Tc       0.00000000       0.00000000       4.74848485       0.00000000       0.00000000      -0.01238000
2
Properties=species:S:1:pos:R:3:forces:R:3 energy=-8.244951482256063 pbc="F F F"
Tc       0.00000000       0.00000000       0.00000000       0.00000000       0.00000000       0.00776017
Tc       0.00000000       0.00000000       4.80808081       0.00000000       0.00000000      -0.00776017
2
Properties=species:S:1:pos:R:3:forces:R:3 energy=-8.244577575560387 pbc="F F F"
Tc       0.00000000       0.00000000       0.00000000       0.00000000       0.00000000       0.00500812
Tc       0.00000000       0.00000000       4.86767677       0.00000000       0.00000000      -0.00500812
2
Properties=species:S:1:pos:R:3:forces:R:3 energy=-8.244323134660329 pbc="F F F"
Tc       0.00000000       0.00000000       0.00000000       0.00000000       0.00000000       0.00391327
Tc       0.00000000       0.00000000       4.92727273       0.00000000       0.00000000      -0.00391327
2
Properties=species:S:1:pos:R:3:forces:R:3 energy=-8.244082975333937 pbc="F F F"
Tc       0.00000000       0.00000000       0.00000000       0.00000000       0.00000000       0.00428807
Tc       0.00000000       0.00000000       4.98686869       0.00000000       0.00000000      -0.00428807
2
Properties=species:S:1:pos:R:3:forces:R:3 energy=-8.243785222428096 pbc="F F F"
Tc       0.00000000       0.00000000       0.00000000       0.00000000       0.00000000       0.00594907
Tc       0.00000000       0.00000000       5.04646465       0.00000000       0.00000000      -0.00594907
2
Properties=species:S:1:pos:R:3:forces:R:3 energy=-8.243352982320006 pbc="F F F"
Tc       0.00000000       0.00000000       0.00000000       0.00000000       0.00000000       0.00868483
Tc       0.00000000       0.00000000       5.10606061       0.00000000       0.00000000      -0.00868483
2
Properties=species:S:1:pos:R:3:forces:R:3 energy=-8.242734084219041 pbc="F F F"
Tc       0.00000000       0.00000000       0.00000000       0.00000000       0.00000000       0.01222094
Tc       0.00000000       0.00000000       5.16565657       0.00000000       0.00000000      -0.01222094
2
Properties=species:S:1:pos:R:3:forces:R:3 energy=-8.24188968676009 pbc="F F F"
Tc       0.00000000       0.00000000       0.00000000       0.00000000       0.00000000       0.01620283
Tc       0.00000000       0.00000000       5.22525253       0.00000000       0.00000000      -0.01620283
2
Properties=species:S:1:pos:R:3:forces:R:3 energy=-8.240800865024767 pbc="F F F"
Tc       0.00000000       0.00000000       0.00000000       0.00000000       0.00000000       0.02021370
Tc       0.00000000       0.00000000       5.28484848       0.00000000       0.00000000      -0.02021370
2
Properties=species:S:1:pos:R:3:forces:R:3 energy=-8.239486977443546 pbc="F F F"
Tc       0.00000000       0.00000000       0.00000000       0.00000000       0.00000000       0.02382211
Tc       0.00000000       0.00000000       5.34444444       0.00000000       0.00000000      -0.02382211
2
Properties=species:S:1:pos:R:3:forces:R:3 energy=-8.237977017552396 pbc="F F F"
Tc       0.00000000       0.00000000       0.00000000       0.00000000       0.00000000       0.02665105
Tc       0.00000000       0.00000000       5.40404040       0.00000000       0.00000000      -0.02665105
2
Properties=species:S:1:pos:R:3:forces:R:3 energy=-8.236327923874134 pbc="F F F"
Tc       0.00000000       0.00000000       0.00000000       0.00000000       0.00000000       0.02844679
Tc       0.00000000       0.00000000       5.46363636       0.00000000       0.00000000      -0.02844679
2
Properties=species:S:1:pos:R:3:forces:R:3 energy=-8.234610293810597 pbc="F F F"
Tc       0.00000000       0.00000000       0.00000000       0.00000000       0.00000000       0.02911990
Tc       0.00000000       0.00000000       5.52323232       0.00000000       0.00000000      -0.02911990
2
Properties=species:S:1:pos:R:3:forces:R:3 energy=-8.232880879142943 pbc="F F F"
Tc       0.00000000       0.00000000       0.00000000       0.00000000       0.00000000       0.02875505
Tc       0.00000000       0.00000000       5.58282828       0.00000000       0.00000000      -0.02875505
2
Properties=species:S:1:pos:R:3:forces:R:3 energy=-8.231196903817679 pbc="F F F"
Tc       0.00000000       0.00000000       0.00000000       0.00000000       0.00000000       0.02757538
Tc       0.00000000       0.00000000       5.64242424       0.00000000       0.00000000      -0.02757538
2
Properties=species:S:1:pos:R:3:forces:R:3 energy=-8.22960381506819 pbc="F F F"
Tc       0.00000000       0.00000000       0.00000000       0.00000000       0.00000000       0.02588617
Tc       0.00000000       0.00000000       5.70202020       0.00000000       0.00000000      -0.02588617
2
Properties=species:S:1:pos:R:3:forces:R:3 energy=-8.228115306939245 pbc="F F F"
Tc       0.00000000       0.00000000       0.00000000       0.00000000       0.00000000       0.02400425
Tc       0.00000000       0.00000000       5.76161616       0.00000000       0.00000000      -0.02400425
2
Properties=species:S:1:pos:R:3:forces:R:3 energy=-8.226741024359509 pbc="F F F"
Tc       0.00000000       0.00000000       0.00000000       0.00000000       0.00000000       0.02219221
Tc       0.00000000       0.00000000       5.82121212       0.00000000       0.00000000      -0.02219221
2
Properties=species:S:1:pos:R:3:forces:R:3 energy=-8.225467591025529 pbc="F F F"
Tc       0.00000000       0.00000000       0.00000000       0.00000000       0.00000000       0.02061196
Tc       0.00000000       0.00000000       5.88080808       0.00000000       0.00000000      -0.02061196
2
Properties=species:S:1:pos:R:3:forces:R:3 energy=-8.224277678136316 pbc="F F F"
Tc       0.00000000       0.00000000       0.00000000       0.00000000       0.00000000       0.01930176
Tc       0.00000000       0.00000000       5.94040404       0.00000000       0.00000000      -0.01930176
2
Properties=species:S:1:pos:R:3:forces:R:3 energy=-8.223161565694573 pbc="F F F"
Tc       0.00000000       0.00000000       0.00000000       0.00000000       0.00000000       0.01818999
Tc       0.00000000       0.00000000       6.00000000       0.00000000       0.00000000      -0.01818999
