2
Properties=species:S:1:pos:R:3:forces:R:3 energy=675118079.9478331 pbc="F F F"
Te       0.00000000       0.00000000       0.00000000       0.00000000       0.00000000 -4243196416.00000000
Te       0.00000000       0.00000000       0.10000000       0.00000000       0.00000000 4243196416.00000000
2
Properties=species:S:1:pos:R:3:forces:R:3 energy=411153663.94783306 pbc="F F F"
Te       0.00000000       0.00000000       0.00000000       0.00000000       0.00000000 -4291813888.00000000
Te       0.00000000       0.00000000       0.15959596       0.00000000       0.00000000 4291813888.00000000
2
Properties=species:S:1:pos:R:3:forces:R:3 energy=191518543.94783306 pbc="F F F"
Te       0.00000000       0.00000000       0.00000000       0.00000000       0.00000000 -2952323840.00000000
Te       0.00000000       0.00000000       0.21919192       0.00000000       0.00000000 2952323840.00000000
2
Properties=species:S:1:pos:R:3:forces:R:3 energy=62746647.947833076 pbc="F F F"
Te       0.00000000       0.00000000       0.00000000       0.00000000       0.00000000 -1381269120.00000000
Te       0.00000000       0.00000000       0.27878788       0.00000000       0.00000000 1381269120.00000000
2
Properties=species:S:1:pos:R:3:forces:R:3 energy=11581925.947833078 pbc="F F F"
Te       0.00000000       0.00000000       0.00000000       0.00000000       0.00000000 -444739488.00000000
Te       0.00000000       0.00000000       0.33838384       0.00000000       0.00000000 444739488.00000000
2
Properties=species:S:1:pos:R:3:forces:R:3 energy=-241324.30216691585 pbc="F F F"
Te       0.00000000       0.00000000       0.00000000       0.00000000       0.00000000  565426.00000000
Te       0.00000000       0.00000000       0.39797980       0.00000000       0.00000000 -565426.00000000
2
Properties=species:S:1:pos:R:3:forces:R:3 energy=-49014.18497940318 pbc="F F F"
Te       0.00000000       0.00000000       0.00000000       0.00000000       0.00000000 1530497.37500000
Te       0.00000000       0.00000000       0.45757576       0.00000000       0.00000000 -1530497.37500000
2
Properties=species:S:1:pos:R:3:forces:R:3 energy=-9876.729901252835 pbc="F F F"
Te       0.00000000       0.00000000       0.00000000       0.00000000       0.00000000  170604.81250000
Te       0.00000000       0.00000000       0.51717172       0.00000000       0.00000000 -170604.81250000
2
Properties=species:S:1:pos:R:3:forces:R:3 energy=-2548.14420784911 pbc="F F F"
Te       0.00000000       0.00000000       0.00000000       0.00000000       0.00000000   72296.30468750
Te       0.00000000       0.00000000       0.57676768       0.00000000       0.00000000  -72296.30468750
2
Properties=species:S:1:pos:R:3:forces:R:3 energy=-427.00071411440274 pbc="F F F"
Te       0.00000000       0.00000000       0.00000000       0.00000000       0.00000000   14708.61132812
Te       0.00000000       0.00000000       0.63636364       0.00000000       0.00000000  -14708.61132812
2
Properties=species:S:1:pos:R:3:forces:R:3 energy=4.033850504229004 pbc="F F F"
Te       0.00000000       0.00000000       0.00000000       0.00000000       0.00000000    2463.26318359
Te       0.00000000       0.00000000       0.69595960       0.00000000       0.00000000   -2463.26318359
2
Properties=species:S:1:pos:R:3:forces:R:3 energy=149.6774630822623 pbc="F F F"
Te       0.00000000       0.00000000       0.00000000       0.00000000       0.00000000    2497.83129883
Te       0.00000000       0.00000000       0.75555556       0.00000000       0.00000000   -2497.83129883
2
Properties=species:S:1:pos:R:3:forces:R:3 energy=287.7463873207294 pbc="F F F"
Te       0.00000000       0.00000000       0.00000000       0.00000000       0.00000000    1575.89282227
Te       0.00000000       0.00000000       0.81515152       0.00000000       0.00000000   -1575.89282227
2
Properties=species:S:1:pos:R:3:forces:R:3 energy=303.8280222571985 pbc="F F F"
Te       0.00000000       0.00000000       0.00000000       0.00000000       0.00000000    -674.83520508
Te       0.00000000       0.00000000       0.87474747       0.00000000       0.00000000     674.83520508
2
Properties=species:S:1:pos:R:3:forces:R:3 energy=242.835972675515 pbc="F F F"
Te       0.00000000       0.00000000       0.00000000       0.00000000       0.00000000   -1289.59619141
Te       0.00000000       0.00000000       0.93434343       0.00000000       0.00000000    1289.59619141
2
Properties=species:S:1:pos:R:3:forces:R:3 energy=172.05145811195374 pbc="F F F"
Te       0.00000000       0.00000000       0.00000000       0.00000000       0.00000000   -1020.05621338
Te       0.00000000       0.00000000       0.99393939       0.00000000       0.00000000    1020.05621338
2
Properties=species:S:1:pos:R:3:forces:R:3 energy=128.10784043994178 pbc="F F F"
Te       0.00000000       0.00000000       0.00000000       0.00000000       0.00000000    -461.80593872
Te       0.00000000       0.00000000       1.05353535       0.00000000       0.00000000     461.80593872
2
Properties=species:S:1:pos:R:3:forces:R:3 energy=108.57141919299035 pbc="F F F"
Te       0.00000000       0.00000000       0.00000000       0.00000000       0.00000000    -165.52130127
Te       0.00000000       0.00000000       1.11313131       0.00000000       0.00000000     165.52130127
2
Properties=species:S:1:pos:R:3:forces:R:3 energy=105.89816521762299 pbc="F F F"
Te       0.00000000       0.00000000       0.00000000       0.00000000       0.00000000     -81.43418121
Te       0.00000000       0.00000000       1.17272727       0.00000000       0.00000000      81.43418121
2
Properties=species:S:1:pos:R:3:forces:R:3 energy=121.94673647746664 pbc="F F F"
Te       0.00000000       0.00000000       0.00000000       0.00000000       0.00000000     140.50621033
Te       0.00000000       0.00000000       1.23232323       0.00000000       0.00000000    -140.50621033
2
Properties=species:S:1:pos:R:3:forces:R:3 energy=121.46411186533547 pbc="F F F"
Te       0.00000000       0.00000000       0.00000000       0.00000000       0.00000000    -115.68090057
Te       0.00000000       0.00000000       1.29191919       0.00000000       0.00000000     115.68090057
2
Properties=species:S:1:pos:R:3:forces:R:3 energy=110.41126718025758 pbc="F F F"
Te       0.00000000       0.00000000       0.00000000       0.00000000       0.00000000    -244.23652649
Te       0.00000000       0.00000000       1.35151515       0.00000000       0.00000000     244.23652649
2
Properties=species:S:1:pos:R:3:forces:R:3 energy=93.34591135253669 pbc="F F F"
Te       0.00000000       0.00000000       0.00000000       0.00000000       0.00000000    -322.84814453
Te       0.00000000       0.00000000       1.41111111       0.00000000       0.00000000     322.84814453
2
Properties=species:S:1:pos:R:3:forces:R:3 energy=73.51622880802189 pbc="F F F"
Te       0.00000000       0.00000000       0.00000000       0.00000000       0.00000000    -321.98770142
Te       0.00000000       0.00000000       1.47070707       0.00000000       0.00000000     321.98770142
2
Properties=species:S:1:pos:R:3:forces:R:3 energy=56.119401489127846 pbc="F F F"
Te       0.00000000       0.00000000       0.00000000       0.00000000       0.00000000    -267.66748047
Te       0.00000000       0.00000000       1.53030303       0.00000000       0.00000000     267.66748047
2
Properties=species:S:1:pos:R:3:forces:R:3 energy=41.60748275736254 pbc="F F F"
Te       0.00000000       0.00000000       0.00000000       0.00000000       0.00000000    -217.58840942
Te       0.00000000       0.00000000       1.58989899       0.00000000       0.00000000     217.58840942
2
Properties=species:S:1:pos:R:3:forces:R:3 energy=30.061983479667074 pbc="F F F"
Te       0.00000000       0.00000000       0.00000000       0.00000000       0.00000000    -170.10722351
Te       0.00000000       0.00000000       1.64949495       0.00000000       0.00000000     170.10722351
2
Properties=species:S:1:pos:R:3:forces:R:3 energy=21.202945342882746 pbc="F F F"
Te       0.00000000       0.00000000       0.00000000       0.00000000       0.00000000    -127.68209839
Te       0.00000000       0.00000000       1.70909091       0.00000000       0.00000000     127.68209839
2
Properties=species:S:1:pos:R:3:forces:R:3 energy=14.80543120265217 pbc="F F F"
Te       0.00000000       0.00000000       0.00000000       0.00000000       0.00000000     -89.29705048
Te       0.00000000       0.00000000       1.76868687       0.00000000       0.00000000      89.29705048
2
Properties=species:S:1:pos:R:3:forces:R:3 energy=10.269841825772538 pbc="F F F"
Te       0.00000000       0.00000000       0.00000000       0.00000000       0.00000000     -64.24057007
Te       0.00000000       0.00000000       1.82828283       0.00000000       0.00000000      64.24057007
2
Properties=species:S:1:pos:R:3:forces:R:3 energy=7.029035731535045 pbc="F F F"
Te       0.00000000       0.00000000       0.00000000       0.00000000       0.00000000     -45.87596130
Te       0.00000000       0.00000000       1.88787879       0.00000000       0.00000000      45.87596130
2
Properties=species:S:1:pos:R:3:forces:R:3 energy=4.644643685318137 pbc="F F F"
Te       0.00000000       0.00000000       0.00000000       0.00000000       0.00000000     -35.17823029
Te       0.00000000       0.00000000       1.94747475       0.00000000       0.00000000      35.17823029
2
Properties=species:S:1:pos:R:3:forces:R:3 energy=2.7496376644807223 pbc="F F F"
Te       0.00000000       0.00000000       0.00000000       0.00000000       0.00000000     -28.90089035
Te       0.00000000       0.00000000       2.00707071       0.00000000       0.00000000      28.90089035
2
Properties=species:S:1:pos:R:3:forces:R:3 energy=1.1598200054340069 pbc="F F F"
Te       0.00000000       0.00000000       0.00000000       0.00000000       0.00000000     -24.67536163
Te       0.00000000       0.00000000       2.06666667       0.00000000       0.00000000      24.67536163
2
Properties=species:S:1:pos:R:3:forces:R:3 energy=-0.20165211804513944 pbc="F F F"
Te       0.00000000       0.00000000       0.00000000       0.00000000       0.00000000     -21.02980614
Te       0.00000000       0.00000000       2.12626263       0.00000000       0.00000000      21.02980614
2
Properties=species:S:1:pos:R:3:forces:R:3 energy=-1.3523817882077227 pbc="F F F"
Te       0.00000000       0.00000000       0.00000000       0.00000000       0.00000000     -17.62854195
Te       0.00000000       0.00000000       2.18585859       0.00000000       0.00000000      17.62854195
2
Properties=species:S:1:pos:R:3:forces:R:3 energy=-2.3017316489619346 pbc="F F F"
Te       0.00000000       0.00000000       0.00000000       0.00000000       0.00000000     -14.22352505
Te       0.00000000       0.00000000       2.24545455       0.00000000       0.00000000      14.22352505
2
Properties=species:S:1:pos:R:3:forces:R:3 energy=-3.051228390496195 pbc="F F F"
Te       0.00000000       0.00000000       0.00000000       0.00000000       0.00000000     -10.96915150
Te       0.00000000       0.00000000       2.30505051       0.00000000       0.00000000      10.96915150
2
Properties=species:S:1:pos:R:3:forces:R:3 energy=-3.614235200098778 pbc="F F F"
Te       0.00000000       0.00000000       0.00000000       0.00000000       0.00000000      -7.98344803
Te       0.00000000       0.00000000       2.36464646       0.00000000       0.00000000       7.98344803
2
Properties=species:S:1:pos:R:3:forces:R:3 energy=-4.011159441011918 pbc="F F F"
Te       0.00000000       0.00000000       0.00000000       0.00000000       0.00000000      -5.39960289
Te       0.00000000       0.00000000       2.42424242       0.00000000       0.00000000       5.39960289
2
Properties=species:S:1:pos:R:3:forces:R:3 energy=-4.264116450157735 pbc="F F F"
Te       0.00000000       0.00000000       0.00000000       0.00000000       0.00000000      -3.14747286
Te       0.00000000       0.00000000       2.48383838       0.00000000       0.00000000       3.14747286
2
Properties=species:S:1:pos:R:3:forces:R:3 energy=-4.395349223768216 pbc="F F F"
Te       0.00000000       0.00000000       0.00000000       0.00000000       0.00000000      -1.34493148
Te       0.00000000       0.00000000       2.54343434       0.00000000       0.00000000       1.34493148
2
Properties=species:S:1:pos:R:3:forces:R:3 energy=-4.434568968975838 pbc="F F F"
Te       0.00000000       0.00000000       0.00000000       0.00000000       0.00000000      -0.04713999
Te       0.00000000       0.00000000       2.60303030       0.00000000       0.00000000       0.04713999
2
Properties=species:S:1:pos:R:3:forces:R:3 energy=-4.408833956362355 pbc="F F F"
Te       0.00000000       0.00000000       0.00000000       0.00000000       0.00000000       0.85279775
Te       0.00000000       0.00000000       2.66262626       0.00000000       0.00000000      -0.85279775
2
Properties=species:S:1:pos:R:3:forces:R:3 energy=-4.339095271907077 pbc="F F F"
Te       0.00000000       0.00000000       0.00000000       0.00000000       0.00000000       1.44214237
Te       0.00000000       0.00000000       2.72222222       0.00000000       0.00000000      -1.44214237
2
Properties=species:S:1:pos:R:3:forces:R:3 energy=-4.241511954539956 pbc="F F F"
Te       0.00000000       0.00000000       0.00000000       0.00000000       0.00000000       1.80128706
Te       0.00000000       0.00000000       2.78181818       0.00000000       0.00000000      -1.80128706
2
Properties=species:S:1:pos:R:3:forces:R:3 energy=-4.1274812522944675 pbc="F F F"
Te       0.00000000       0.00000000       0.00000000       0.00000000       0.00000000       2.00403357
Te       0.00000000       0.00000000       2.84141414       0.00000000       0.00000000      -2.00403357
2
Properties=species:S:1:pos:R:3:forces:R:3 energy=-4.004837346573816 pbc="F F F"
Te       0.00000000       0.00000000       0.00000000       0.00000000       0.00000000       2.09604001
Te       0.00000000       0.00000000       2.90101010       0.00000000       0.00000000      -2.09604001
2
Properties=species:S:1:pos:R:3:forces:R:3 energy=-3.8792525698185396 pbc="F F F"
Te       0.00000000       0.00000000       0.00000000       0.00000000       0.00000000       2.10751629
Te       0.00000000       0.00000000       2.96060606       0.00000000       0.00000000      -2.10751629
2
Properties=species:S:1:pos:R:3:forces:R:3 energy=-3.754623360004647 pbc="F F F"
Te       0.00000000       0.00000000       0.00000000       0.00000000       0.00000000       2.06934357
Te       0.00000000       0.00000000       3.02020202       0.00000000       0.00000000      -2.06934357
2
Properties=species:S:1:pos:R:3:forces:R:3 energy=-3.633032650696741 pbc="F F F"
Te       0.00000000       0.00000000       0.00000000       0.00000000       0.00000000       2.00902367
Te       0.00000000       0.00000000       3.07979798       0.00000000       0.00000000      -2.00902367
2
Properties=species:S:1:pos:R:3:forces:R:3 energy=-3.5153317137513325 pbc="F F F"
Te       0.00000000       0.00000000       0.00000000       0.00000000       0.00000000       1.93991077
Te       0.00000000       0.00000000       3.13939394       0.00000000       0.00000000      -1.93991077
2
Properties=species:S:1:pos:R:3:forces:R:3 energy=-3.4019119622710017 pbc="F F F"
Te       0.00000000       0.00000000       0.00000000       0.00000000       0.00000000       1.86557758
Te       0.00000000       0.00000000       3.19898990       0.00000000       0.00000000      -1.86557758
2
Properties=species:S:1:pos:R:3:forces:R:3 energy=-3.293080688109524 pbc="F F F"
Te       0.00000000       0.00000000       0.00000000       0.00000000       0.00000000       1.78558838
Te       0.00000000       0.00000000       3.25858586       0.00000000       0.00000000      -1.78558838
2
Properties=species:S:1:pos:R:3:forces:R:3 energy=-3.189242240153139 pbc="F F F"
Te       0.00000000       0.00000000       0.00000000       0.00000000       0.00000000       1.69769835
Te       0.00000000       0.00000000       3.31818182       0.00000000       0.00000000      -1.69769835
2
Properties=species:S:1:pos:R:3:forces:R:3 energy=-3.0909194779929283 pbc="F F F"
Te       0.00000000       0.00000000       0.00000000       0.00000000       0.00000000       1.60027909
Te       0.00000000       0.00000000       3.37777778       0.00000000       0.00000000      -1.60027909
2
Properties=species:S:1:pos:R:3:forces:R:3 energy=-2.998687065247972 pbc="F F F"
Te       0.00000000       0.00000000       0.00000000       0.00000000       0.00000000       1.49359214
Te       0.00000000       0.00000000       3.43737374       0.00000000       0.00000000      -1.49359214
2
Properties=species:S:1:pos:R:3:forces:R:3 energy=-2.913026052407111 pbc="F F F"
Te       0.00000000       0.00000000       0.00000000       0.00000000       0.00000000       1.38037074
Te       0.00000000       0.00000000       3.49696970       0.00000000       0.00000000      -1.38037074
2
Properties=species:S:1:pos:R:3:forces:R:3 energy=-2.8342060933790636 pbc="F F F"
Te       0.00000000       0.00000000       0.00000000       0.00000000       0.00000000       1.26470435
Te       0.00000000       0.00000000       3.55656566       0.00000000       0.00000000      -1.26470435
2
Properties=species:S:1:pos:R:3:forces:R:3 energy=-2.762263298739063 pbc="F F F"
Te       0.00000000       0.00000000       0.00000000       0.00000000       0.00000000       1.15002012
Te       0.00000000       0.00000000       3.61616162       0.00000000       0.00000000      -1.15002012
2
Properties=species:S:1:pos:R:3:forces:R:3 energy=-2.697068287226129 pbc="F F F"
Te       0.00000000       0.00000000       0.00000000       0.00000000       0.00000000       1.03859460
Te       0.00000000       0.00000000       3.67575758       0.00000000       0.00000000      -1.03859460
2
Properties=species:S:1:pos:R:3:forces:R:3 energy=-2.6383694115338754 pbc="F F F"
Te       0.00000000       0.00000000       0.00000000       0.00000000       0.00000000       0.93231493
Te       0.00000000       0.00000000       3.73535354       0.00000000       0.00000000      -0.93231493
2
Properties=species:S:1:pos:R:3:forces:R:3 energy=-2.585801885572701 pbc="F F F"
Te       0.00000000       0.00000000       0.00000000       0.00000000       0.00000000       0.83306116
Te       0.00000000       0.00000000       3.79494949       0.00000000       0.00000000      -0.83306116
2
Properties=species:S:1:pos:R:3:forces:R:3 energy=-2.5389059097855267 pbc="F F F"
Te       0.00000000       0.00000000       0.00000000       0.00000000       0.00000000       0.74231976
Te       0.00000000       0.00000000       3.85454545       0.00000000       0.00000000      -0.74231976
2
Properties=species:S:1:pos:R:3:forces:R:3 energy=-2.49714222304033 pbc="F F F"
Te       0.00000000       0.00000000       0.00000000       0.00000000       0.00000000       0.66066116
Te       0.00000000       0.00000000       3.91414141       0.00000000       0.00000000      -0.66066116
2
Properties=species:S:1:pos:R:3:forces:R:3 energy=-2.4599861337530604 pbc="F F F"
Te       0.00000000       0.00000000       0.00000000       0.00000000       0.00000000       0.58764708
Te       0.00000000       0.00000000       3.97373737       0.00000000       0.00000000      -0.58764708
2
Properties=species:S:1:pos:R:3:forces:R:3 energy=-2.4269492073067873 pbc="F F F"
Te       0.00000000       0.00000000       0.00000000       0.00000000       0.00000000       0.52220863
Te       0.00000000       0.00000000       4.03333333       0.00000000       0.00000000      -0.52220863
2
Properties=species:S:1:pos:R:3:forces:R:3 energy=-2.3976164846926173 pbc="F F F"
Te       0.00000000       0.00000000       0.00000000       0.00000000       0.00000000       0.46320340
Te       0.00000000       0.00000000       4.09292929       0.00000000       0.00000000      -0.46320340
2
Properties=species:S:1:pos:R:3:forces:R:3 energy=-2.3716282383207004 pbc="F F F"
Te       0.00000000       0.00000000       0.00000000       0.00000000       0.00000000       0.40985751
Te       0.00000000       0.00000000       4.15252525       0.00000000       0.00000000      -0.40985751
2
Properties=species:S:1:pos:R:3:forces:R:3 energy=-2.348658009832473 pbc="F F F"
Te       0.00000000       0.00000000       0.00000000       0.00000000       0.00000000       0.36192483
Te       0.00000000       0.00000000       4.21212121       0.00000000       0.00000000      -0.36192483
2
Properties=species:S:1:pos:R:3:forces:R:3 energy=-2.328380003776117 pbc="F F F"
Te       0.00000000       0.00000000       0.00000000       0.00000000       0.00000000       0.31958035
Te       0.00000000       0.00000000       4.27171717       0.00000000       0.00000000      -0.31958035
2
Properties=species:S:1:pos:R:3:forces:R:3 energy=-2.310448221645116 pbc="F F F"
Te       0.00000000       0.00000000       0.00000000       0.00000000       0.00000000       0.28317097
Te       0.00000000       0.00000000       4.33131313       0.00000000       0.00000000      -0.28317097
2
Properties=species:S:1:pos:R:3:forces:R:3 energy=-2.2945035827574083 pbc="F F F"
Te       0.00000000       0.00000000       0.00000000       0.00000000       0.00000000       0.25292262
Te       0.00000000       0.00000000       4.39090909       0.00000000       0.00000000      -0.25292262
2
Properties=species:S:1:pos:R:3:forces:R:3 energy=-2.280182969154195 pbc="F F F"
Te       0.00000000       0.00000000       0.00000000       0.00000000       0.00000000       0.22872487
Te       0.00000000       0.00000000       4.45050505       0.00000000       0.00000000      -0.22872487
2
Properties=species:S:1:pos:R:3:forces:R:3 energy=-2.2671331013948657 pbc="F F F"
Te       0.00000000       0.00000000       0.00000000       0.00000000       0.00000000       0.21003215
Te       0.00000000       0.00000000       4.51010101       0.00000000       0.00000000      -0.21003215
2
Properties=species:S:1:pos:R:3:forces:R:3 energy=-2.2550549010837373 pbc="F F F"
Te       0.00000000       0.00000000       0.00000000       0.00000000       0.00000000       0.19591525
Te       0.00000000       0.00000000       4.56969697       0.00000000       0.00000000      -0.19591525
2
Properties=species:S:1:pos:R:3:forces:R:3 energy=-2.2437125666151707 pbc="F F F"
Te       0.00000000       0.00000000       0.00000000       0.00000000       0.00000000       0.18523544
Te       0.00000000       0.00000000       4.62929293       0.00000000       0.00000000      -0.18523544
2
Properties=species:S:1:pos:R:3:forces:R:3 energy=-2.232931920914546 pbc="F F F"
Te       0.00000000       0.00000000       0.00000000       0.00000000       0.00000000       0.17688589
Te       0.00000000       0.00000000       4.68888889       0.00000000       0.00000000      -0.17688589
2
Properties=species:S:1:pos:R:3:forces:R:3 energy=-2.2225999979575484 pbc="F F F"
Te       0.00000000       0.00000000       0.00000000       0.00000000       0.00000000       0.17001107
Te       0.00000000       0.00000000       4.74848485       0.00000000       0.00000000      -0.17001107
2
Properties=species:S:1:pos:R:3:forces:R:3 energy=-2.212648420825812 pbc="F F F"
Te       0.00000000       0.00000000       0.00000000       0.00000000       0.00000000       0.16413721
Te       0.00000000       0.00000000       4.80808081       0.00000000       0.00000000      -0.16413721
2
Properties=species:S:1:pos:R:3:forces:R:3 energy=-2.203019792606824 pbc="F F F"
Te       0.00000000       0.00000000       0.00000000       0.00000000       0.00000000       0.15916508
Te       0.00000000       0.00000000       4.86767677       0.00000000       0.00000000      -0.15916508
2
Properties=species:S:1:pos:R:3:forces:R:3 energy=-2.193655784968435 pbc="F F F"
Te       0.00000000       0.00000000       0.00000000       0.00000000       0.00000000       0.15522334
Te       0.00000000       0.00000000       4.92727273       0.00000000       0.00000000      -0.15522334
2
Properties=species:S:1:pos:R:3:forces:R:3 energy=-2.1844956078609865 pbc="F F F"
Te       0.00000000       0.00000000       0.00000000       0.00000000       0.00000000       0.15243441
Te       0.00000000       0.00000000       4.98686869       0.00000000       0.00000000      -0.15243441
2
Properties=species:S:1:pos:R:3:forces:R:3 energy=-2.1754665693927233 pbc="F F F"
Te       0.00000000       0.00000000       0.00000000       0.00000000       0.00000000       0.15070367
Te       0.00000000       0.00000000       5.04646465       0.00000000       0.00000000      -0.15070367
2
Properties=species:S:1:pos:R:3:forces:R:3 energy=-2.1665183257418072 pbc="F F F"
Te       0.00000000       0.00000000       0.00000000       0.00000000       0.00000000       0.14956655
Te       0.00000000       0.00000000       5.10606061       0.00000000       0.00000000      -0.14956655
2
Properties=species:S:1:pos:R:3:forces:R:3 energy=-2.157642310270645 pbc="F F F"
Te       0.00000000       0.00000000       0.00000000       0.00000000       0.00000000       0.14818843
Te       0.00000000       0.00000000       5.16565657       0.00000000       0.00000000      -0.14818843
2
Properties=species:S:1:pos:R:3:forces:R:3 energy=-2.1488831728659497 pbc="F F F"
Te       0.00000000       0.00000000       0.00000000       0.00000000       0.00000000       0.14550428
Te       0.00000000       0.00000000       5.22525253       0.00000000       0.00000000      -0.14550428
2
Properties=species:S:1:pos:R:3:forces:R:3 energy=-2.1403468909221672 pbc="F F F"
Te       0.00000000       0.00000000       0.00000000       0.00000000       0.00000000       0.14044502
Te       0.00000000       0.00000000       5.28484848       0.00000000       0.00000000      -0.14044502
2
Properties=species:S:1:pos:R:3:forces:R:3 energy=-2.1322068390958138 pbc="F F F"
Te       0.00000000       0.00000000       0.00000000       0.00000000       0.00000000       0.13221510
Te       0.00000000       0.00000000       5.34444444       0.00000000       0.00000000      -0.13221510
2
Properties=species:S:1:pos:R:3:forces:R:3 energy=-2.124658238685582 pbc="F F F"
Te       0.00000000       0.00000000       0.00000000       0.00000000       0.00000000       0.12050834
Te       0.00000000       0.00000000       5.40404040       0.00000000       0.00000000      -0.12050834
2
Properties=species:S:1:pos:R:3:forces:R:3 energy=-2.1179043974629272 pbc="F F F"
Te       0.00000000       0.00000000       0.00000000       0.00000000       0.00000000       0.10561875
Te       0.00000000       0.00000000       5.46363636       0.00000000       0.00000000      -0.10561875
2
Properties=species:S:1:pos:R:3:forces:R:3 energy=-2.1121178846655853 pbc="F F F"
Te       0.00000000       0.00000000       0.00000000       0.00000000       0.00000000       0.08842991
Te       0.00000000       0.00000000       5.52323232       0.00000000       0.00000000      -0.08842991
2
Properties=species:S:1:pos:R:3:forces:R:3 energy=-2.107386463041137 pbc="F F F"
Te       0.00000000       0.00000000       0.00000000       0.00000000       0.00000000       0.07026640
Te       0.00000000       0.00000000       5.58282828       0.00000000       0.00000000      -0.07026640
2
Properties=species:S:1:pos:R:3:forces:R:3 energy=-2.1037312031153315 pbc="F F F"
Te       0.00000000       0.00000000       0.00000000       0.00000000       0.00000000       0.05264858
Te       0.00000000       0.00000000       5.64242424       0.00000000       0.00000000      -0.05264858
2
Properties=species:S:1:pos:R:3:forces:R:3 energy=-2.1010691338385423 pbc="F F F"
Te       0.00000000       0.00000000       0.00000000       0.00000000       0.00000000       0.03702103
Te       0.00000000       0.00000000       5.70202020       0.00000000       0.00000000      -0.03702103
2
Properties=species:S:1:pos:R:3:forces:R:3 energy=-2.0992552058396017 pbc="F F F"
Te       0.00000000       0.00000000       0.00000000       0.00000000       0.00000000       0.02449830
Te       0.00000000       0.00000000       5.76161616       0.00000000       0.00000000      -0.02449830
2
Properties=species:S:1:pos:R:3:forces:R:3 energy=-2.0980768339330123 pbc="F F F"
Te       0.00000000       0.00000000       0.00000000       0.00000000       0.00000000       0.01563285
Te       0.00000000       0.00000000       5.82121212       0.00000000       0.00000000      -0.01563285
2
Properties=species:S:1:pos:R:3:forces:R:3 energy=-2.097320221041494 pbc="F F F"
Te       0.00000000       0.00000000       0.00000000       0.00000000       0.00000000       0.01037171
Te       0.00000000       0.00000000       5.88080808       0.00000000       0.00000000      -0.01037171
2
Properties=species:S:1:pos:R:3:forces:R:3 energy=-2.096784650639439 pbc="F F F"
Te       0.00000000       0.00000000       0.00000000       0.00000000       0.00000000       0.00799138
Te       0.00000000       0.00000000       5.94040404       0.00000000       0.00000000      -0.00799138
2
Properties=species:S:1:pos:R:3:forces:R:3 energy=-2.0963340303074656 pbc="F F F"
Te       0.00000000       0.00000000       0.00000000       0.00000000       0.00000000       0.00726031
Te       0.00000000       0.00000000       6.00000000       0.00000000       0.00000000      -0.00726031
