2
Properties=species:S:1:pos:R:3:forces:R:3 energy=327070719.94783306 pbc="F F F"
Te       0.00000000       0.00000000       0.00000000       0.00000000       0.00000000 -3926849536.00000000
Te       0.00000000       0.00000000       0.18000000       0.00000000       0.00000000 3926849536.00000000
2
Properties=species:S:1:pos:R:3:forces:R:3 energy=138868911.94783306 pbc="F F F"
Te       0.00000000       0.00000000       0.00000000       0.00000000       0.00000000 -2422189824.00000000
Te       0.00000000       0.00000000       0.23878788       0.00000000       0.00000000 2422189824.00000000
2
Properties=species:S:1:pos:R:3:forces:R:3 energy=40356471.947833076 pbc="F F F"
Te       0.00000000       0.00000000       0.00000000       0.00000000       0.00000000 -1012713216.00000000
Te       0.00000000       0.00000000       0.29757576       0.00000000       0.00000000 1012713216.00000000
2
Properties=species:S:1:pos:R:3:forces:R:3 energy=5207349.947833078 pbc="F F F"
Te       0.00000000       0.00000000       0.00000000       0.00000000       0.00000000 -255490992.00000000
Te       0.00000000       0.00000000       0.35636364       0.00000000       0.00000000 255490992.00000000
2
Properties=species:S:1:pos:R:3:forces:R:3 energy=-170351.31779191585 pbc="F F F"
Te       0.00000000       0.00000000       0.00000000       0.00000000       0.00000000 4720638.00000000
Te       0.00000000       0.00000000       0.41515152       0.00000000       0.00000000 -4720638.00000000
2
Properties=species:S:1:pos:R:3:forces:R:3 energy=-28931.44083877184 pbc="F F F"
Te       0.00000000       0.00000000       0.00000000       0.00000000       0.00000000  956691.31250000
Te       0.00000000       0.00000000       0.47393939       0.00000000       0.00000000 -956691.31250000
2
Properties=species:S:1:pos:R:3:forces:R:3 energy=-7436.6996278058305 pbc="F F F"
Te       0.00000000       0.00000000       0.00000000       0.00000000       0.00000000  143011.17187500
Te       0.00000000       0.00000000       0.53272727       0.00000000       0.00000000 -143011.17187500
2
Properties=species:S:1:pos:R:3:forces:R:3 energy=-1676.7173279472904 pbc="F F F"
Te       0.00000000       0.00000000       0.00000000       0.00000000       0.00000000   47020.06640625
Te       0.00000000       0.00000000       0.59151515       0.00000000       0.00000000  -47020.06640625
2
Properties=species:S:1:pos:R:3:forces:R:3 energy=-255.53852537152486 pbc="F F F"
Te       0.00000000       0.00000000       0.00000000       0.00000000       0.00000000   10098.14843750
Te       0.00000000       0.00000000       0.65030303       0.00000000       0.00000000  -10098.14843750
2
Properties=species:S:1:pos:R:3:forces:R:3 energy=25.29895721708408 pbc="F F F"
Te       0.00000000       0.00000000       0.00000000       0.00000000       0.00000000    1117.96191406
Te       0.00000000       0.00000000       0.70909091       0.00000000       0.00000000   -1117.96191406
2
Properties=species:S:1:pos:R:3:forces:R:3 energy=174.4562869854865 pbc="F F F"
Te       0.00000000       0.00000000       0.00000000       0.00000000       0.00000000    1549.80908203
Te       0.00000000       0.00000000       0.76787879       0.00000000       0.00000000   -1549.80908203
2
Properties=species:S:1:pos:R:3:forces:R:3 energy=302.13982000444116 pbc="F F F"
Te       0.00000000       0.00000000       0.00000000       0.00000000       0.00000000     928.90484619
Te       0.00000000       0.00000000       0.82666667       0.00000000       0.00000000    -928.90484619
2
Properties=species:S:1:pos:R:3:forces:R:3 energy=295.8372691720694 pbc="F F F"
Te       0.00000000       0.00000000       0.00000000       0.00000000       0.00000000    -802.59997559
Te       0.00000000       0.00000000       0.88545455       0.00000000       0.00000000     802.59997559
2
Properties=species:S:1:pos:R:3:forces:R:3 energy=230.08491993627908 pbc="F F F"
Te       0.00000000       0.00000000       0.00000000       0.00000000       0.00000000   -1281.39355469
Te       0.00000000       0.00000000       0.94424242       0.00000000       0.00000000    1281.39355469
2
Properties=species:S:1:pos:R:3:forces:R:3 energy=163.12029065513448 pbc="F F F"
Te       0.00000000       0.00000000       0.00000000       0.00000000       0.00000000    -942.30718994
Te       0.00000000       0.00000000       1.00303030       0.00000000       0.00000000     942.30718994
2
Properties=species:S:1:pos:R:3:forces:R:3 energy=124.43130406361686 pbc="F F F"
Te       0.00000000       0.00000000       0.00000000       0.00000000       0.00000000    -428.91906738
Te       0.00000000       0.00000000       1.06181818       0.00000000       0.00000000     428.91906738
2
Properties=species:S:1:pos:R:3:forces:R:3 energy=107.52186649092178 pbc="F F F"
Te       0.00000000       0.00000000       0.00000000       0.00000000       0.00000000    -113.14120483
Te       0.00000000       0.00000000       1.12060606       0.00000000       0.00000000     113.14120483
2
Properties=species:S:1:pos:R:3:forces:R:3 energy=105.3964412278847 pbc="F F F"
Te       0.00000000       0.00000000       0.00000000       0.00000000       0.00000000     -42.21864700
Te       0.00000000       0.00000000       1.17939394       0.00000000       0.00000000      42.21864700
2
Properties=species:S:1:pos:R:3:forces:R:3 energy=122.65318817858626 pbc="F F F"
Te       0.00000000       0.00000000       0.00000000       0.00000000       0.00000000     102.03709412
Te       0.00000000       0.00000000       1.23818182       0.00000000       0.00000000    -102.03709412
2
Properties=species:S:1:pos:R:3:forces:R:3 energy=120.84719170459063 pbc="F F F"
Te       0.00000000       0.00000000       0.00000000       0.00000000       0.00000000    -128.65721130
Te       0.00000000       0.00000000       1.29696970       0.00000000       0.00000000     128.65721130
2
Properties=species:S:1:pos:R:3:forces:R:3 energy=109.36022686029702 pbc="F F F"
Te       0.00000000       0.00000000       0.00000000       0.00000000       0.00000000    -251.20433044
Te       0.00000000       0.00000000       1.35575758       0.00000000       0.00000000     251.20433044
2
Properties=species:S:1:pos:R:3:forces:R:3 energy=92.23174543489586 pbc="F F F"
Te       0.00000000       0.00000000       0.00000000       0.00000000       0.00000000    -325.95431519
Te       0.00000000       0.00000000       1.41454545       0.00000000       0.00000000     325.95431519
2
Properties=species:S:1:pos:R:3:forces:R:3 energy=72.67414996220646 pbc="F F F"
Te       0.00000000       0.00000000       0.00000000       0.00000000       0.00000000    -319.23400879
Te       0.00000000       0.00000000       1.47333333       0.00000000       0.00000000     319.23400879
2
Properties=species:S:1:pos:R:3:forces:R:3 energy=55.6338670935918 pbc="F F F"
Te       0.00000000       0.00000000       0.00000000       0.00000000       0.00000000    -266.41397095
Te       0.00000000       0.00000000       1.53212121       0.00000000       0.00000000     266.41397095
2
Properties=species:S:1:pos:R:3:forces:R:3 energy=41.38809588031722 pbc="F F F"
Te       0.00000000       0.00000000       0.00000000       0.00000000       0.00000000    -216.74746704
Te       0.00000000       0.00000000       1.59090909       0.00000000       0.00000000     216.74746704
2
Properties=species:S:1:pos:R:3:forces:R:3 energy=30.027651245458138 pbc="F F F"
Te       0.00000000       0.00000000       0.00000000       0.00000000       0.00000000    -169.95120239
Te       0.00000000       0.00000000       1.64969697       0.00000000       0.00000000     169.95120239
2
Properties=species:S:1:pos:R:3:forces:R:3 energy=21.280456018231874 pbc="F F F"
Te       0.00000000       0.00000000       0.00000000       0.00000000       0.00000000    -128.11775208
Te       0.00000000       0.00000000       1.70848485       0.00000000       0.00000000     128.11775208
2
Properties=species:S:1:pos:R:3:forces:R:3 energy=14.932217941658193 pbc="F F F"
Te       0.00000000       0.00000000       0.00000000       0.00000000       0.00000000     -90.02432251
Te       0.00000000       0.00000000       1.76727273       0.00000000       0.00000000      90.02432251
2
Properties=species:S:1:pos:R:3:forces:R:3 energy=10.413515833595715 pbc="F F F"
Te       0.00000000       0.00000000       0.00000000       0.00000000       0.00000000     -65.06735229
Te       0.00000000       0.00000000       1.82606061       0.00000000       0.00000000      65.06735229
2
Properties=species:S:1:pos:R:3:forces:R:3 energy=7.169158652341542 pbc="F F F"
Te       0.00000000       0.00000000       0.00000000       0.00000000       0.00000000     -46.60848236
Te       0.00000000       0.00000000       1.88484848       0.00000000       0.00000000      46.60848236
2
Properties=species:S:1:pos:R:3:forces:R:3 energy=4.780662305641064 pbc="F F F"
Te       0.00000000       0.00000000       0.00000000       0.00000000       0.00000000     -35.69945908
Te       0.00000000       0.00000000       1.94363636       0.00000000       0.00000000      35.69945908
2
Properties=species:S:1:pos:R:3:forces:R:3 energy=2.8848485861739466 pbc="F F F"
Te       0.00000000       0.00000000       0.00000000       0.00000000       0.00000000     -29.29760742
Te       0.00000000       0.00000000       2.00242424       0.00000000       0.00000000      29.29760742
2
Properties=species:S:1:pos:R:3:forces:R:3 energy=1.2953388785600821 pbc="F F F"
Te       0.00000000       0.00000000       0.00000000       0.00000000       0.00000000     -25.01646423
Te       0.00000000       0.00000000       2.06121212       0.00000000       0.00000000      25.01646423
2
Properties=species:S:1:pos:R:3:forces:R:3 energy=-0.06876958070841903 pbc="F F F"
Te       0.00000000       0.00000000       0.00000000       0.00000000       0.00000000     -21.40629768
Te       0.00000000       0.00000000       2.12000000       0.00000000       0.00000000      21.40629768
2
Properties=species:S:1:pos:R:3:forces:R:3 energy=-1.2263372934687446 pbc="F F F"
Te       0.00000000       0.00000000       0.00000000       0.00000000       0.00000000     -18.02452087
Te       0.00000000       0.00000000       2.17878788       0.00000000       0.00000000      18.02452087
2
Properties=species:S:1:pos:R:3:forces:R:3 energy=-2.1879052157643386 pbc="F F F"
Te       0.00000000       0.00000000       0.00000000       0.00000000       0.00000000     -14.67199612
Te       0.00000000       0.00000000       2.23757576       0.00000000       0.00000000      14.67199612
2
Properties=species:S:1:pos:R:3:forces:R:3 energy=-2.9539449302010468 pbc="F F F"
Te       0.00000000       0.00000000       0.00000000       0.00000000       0.00000000     -11.42896843
Te       0.00000000       0.00000000       2.29636364       0.00000000       0.00000000      11.42896843
2
Properties=species:S:1:pos:R:3:forces:R:3 energy=-3.536304127872422 pbc="F F F"
Te       0.00000000       0.00000000       0.00000000       0.00000000       0.00000000      -8.43350124
Te       0.00000000       0.00000000       2.35515152       0.00000000       0.00000000       8.43350124
2
Properties=species:S:1:pos:R:3:forces:R:3 energy=-3.9533638105033075 pbc="F F F"
Te       0.00000000       0.00000000       0.00000000       0.00000000       0.00000000      -5.82113838
Te       0.00000000       0.00000000       2.41393939       0.00000000       0.00000000       5.82113838
2
Properties=species:S:1:pos:R:3:forces:R:3 energy=-4.226982805135109 pbc="F F F"
Te       0.00000000       0.00000000       0.00000000       0.00000000       0.00000000      -3.53930569
Te       0.00000000       0.00000000       2.47272727       0.00000000       0.00000000       3.53930569
2
Properties=species:S:1:pos:R:3:forces:R:3 energy=-4.377445823322273 pbc="F F F"
Te       0.00000000       0.00000000       0.00000000       0.00000000       0.00000000      -1.66275918
Te       0.00000000       0.00000000       2.53151515       0.00000000       0.00000000       1.66275918
2
Properties=species:S:1:pos:R:3:forces:R:3 energy=-4.432461406817977 pbc="F F F"
Te       0.00000000       0.00000000       0.00000000       0.00000000       0.00000000      -0.28711924
Te       0.00000000       0.00000000       2.59030303       0.00000000       0.00000000       0.28711924
2
Properties=species:S:1:pos:R:3:forces:R:3 energy=-4.419214295756852 pbc="F F F"
Te       0.00000000       0.00000000       0.00000000       0.00000000       0.00000000       0.67832512
Te       0.00000000       0.00000000       2.64909091       0.00000000       0.00000000      -0.67832512
2
Properties=species:S:1:pos:R:3:forces:R:3 energy=-4.35895417754955 pbc="F F F"
Te       0.00000000       0.00000000       0.00000000       0.00000000       0.00000000       1.32455742
Te       0.00000000       0.00000000       2.70787879       0.00000000       0.00000000      -1.32455742
2
Properties=species:S:1:pos:R:3:forces:R:3 energy=-4.268256986186469 pbc="F F F"
Te       0.00000000       0.00000000       0.00000000       0.00000000       0.00000000       1.72725284
Te       0.00000000       0.00000000       2.76666667       0.00000000       0.00000000      -1.72725284
2
Properties=species:S:1:pos:R:3:forces:R:3 energy=-4.1591403760255945 pbc="F F F"
Te       0.00000000       0.00000000       0.00000000       0.00000000       0.00000000       1.96203876
Te       0.00000000       0.00000000       2.82545455       0.00000000       0.00000000      -1.96203876
2
Properties=species:S:1:pos:R:3:forces:R:3 energy=-4.03985300449874 pbc="F F F"
Te       0.00000000       0.00000000       0.00000000       0.00000000       0.00000000       2.07952499
Te       0.00000000       0.00000000       2.88424242       0.00000000       0.00000000      -2.07952499
2
Properties=species:S:1:pos:R:3:forces:R:3 energy=-3.9163289836465567 pbc="F F F"
Te       0.00000000       0.00000000       0.00000000       0.00000000       0.00000000       2.11074734
Te       0.00000000       0.00000000       2.94303030       0.00000000       0.00000000      -2.11074734
2
Properties=species:S:1:pos:R:3:forces:R:3 energy=-3.792807724906606 pbc="F F F"
Te       0.00000000       0.00000000       0.00000000       0.00000000       0.00000000       2.08452177
Te       0.00000000       0.00000000       3.00181818       0.00000000       0.00000000      -2.08452177
2
Properties=species:S:1:pos:R:3:forces:R:3 energy=-3.6717891107569107 pbc="F F F"
Te       0.00000000       0.00000000       0.00000000       0.00000000       0.00000000       2.02976537
Te       0.00000000       0.00000000       3.06060606       0.00000000       0.00000000      -2.02976537
2
Properties=species:S:1:pos:R:3:forces:R:3 energy=-3.5543696095555255 pbc="F F F"
Te       0.00000000       0.00000000       0.00000000       0.00000000       0.00000000       1.96375930
Te       0.00000000       0.00000000       3.11939394       0.00000000       0.00000000      -1.96375930
2
Properties=species:S:1:pos:R:3:forces:R:3 energy=-3.441007069993305 pbc="F F F"
Te       0.00000000       0.00000000       0.00000000       0.00000000       0.00000000       1.89208853
Te       0.00000000       0.00000000       3.17818182       0.00000000       0.00000000      -1.89208853
2
Properties=species:S:1:pos:R:3:forces:R:3 energy=-3.3320025263563338 pbc="F F F"
Te       0.00000000       0.00000000       0.00000000       0.00000000       0.00000000       1.81539011
Te       0.00000000       0.00000000       3.23696970       0.00000000       0.00000000      -1.81539011
2
Properties=species:S:1:pos:R:3:forces:R:3 energy=-3.2276971109294283 pbc="F F F"
Te       0.00000000       0.00000000       0.00000000       0.00000000       0.00000000       1.73183131
Te       0.00000000       0.00000000       3.29575758       0.00000000       0.00000000      -1.73183131
2
Properties=species:S:1:pos:R:3:forces:R:3 energy=-3.1285548445997864 pbc="F F F"
Te       0.00000000       0.00000000       0.00000000       0.00000000       0.00000000       1.63942564
Te       0.00000000       0.00000000       3.35454545       0.00000000       0.00000000      -1.63942564
2
Properties=species:S:1:pos:R:3:forces:R:3 energy=-3.03512466795444 pbc="F F F"
Te       0.00000000       0.00000000       0.00000000       0.00000000       0.00000000       1.53762221
Te       0.00000000       0.00000000       3.41333333       0.00000000       0.00000000      -1.53762221
2
Properties=species:S:1:pos:R:3:forces:R:3 energy=-2.947920740818422 pbc="F F F"
Te       0.00000000       0.00000000       0.00000000       0.00000000       0.00000000       1.42811430
Te       0.00000000       0.00000000       3.47212121       0.00000000       0.00000000      -1.42811430
2
Properties=species:S:1:pos:R:3:forces:R:3 energy=-2.86729256281379 pbc="F F F"
Te       0.00000000       0.00000000       0.00000000       0.00000000       0.00000000       1.31455004
Te       0.00000000       0.00000000       3.53090909       0.00000000       0.00000000      -1.31455004
2
Properties=species:S:1:pos:R:3:forces:R:3 energy=-2.7933670566518383 pbc="F F F"
Te       0.00000000       0.00000000       0.00000000       0.00000000       0.00000000       1.20066094
Te       0.00000000       0.00000000       3.58969697       0.00000000       0.00000000      -1.20066094
2
Properties=species:S:1:pos:R:3:forces:R:3 energy=-2.7260793067867035 pbc="F F F"
Te       0.00000000       0.00000000       0.00000000       0.00000000       0.00000000       1.08906078
Te       0.00000000       0.00000000       3.64848485       0.00000000       0.00000000      -1.08906078
2
Properties=species:S:1:pos:R:3:forces:R:3 energy=-2.6652380373295856 pbc="F F F"
Te       0.00000000       0.00000000       0.00000000       0.00000000       0.00000000       0.98163068
Te       0.00000000       0.00000000       3.70727273       0.00000000       0.00000000      -0.98163068
2
Properties=species:S:1:pos:R:3:forces:R:3 energy=-2.610544536647434 pbc="F F F"
Te       0.00000000       0.00000000       0.00000000       0.00000000       0.00000000       0.88018578
Te       0.00000000       0.00000000       3.76606061       0.00000000       0.00000000      -0.88018578
2
Properties=species:S:1:pos:R:3:forces:R:3 energy=-2.5615989481128456 pbc="F F F"
Te       0.00000000       0.00000000       0.00000000       0.00000000       0.00000000       0.78641170
Te       0.00000000       0.00000000       3.82484848       0.00000000       0.00000000      -0.78641170
2
Properties=species:S:1:pos:R:3:forces:R:3 energy=-2.517910896737899 pbc="F F F"
Te       0.00000000       0.00000000       0.00000000       0.00000000       0.00000000       0.70133036
Te       0.00000000       0.00000000       3.88363636       0.00000000       0.00000000      -0.70133036
2
Properties=species:S:1:pos:R:3:forces:R:3 energy=-2.478966456284483 pbc="F F F"
Te       0.00000000       0.00000000       0.00000000       0.00000000       0.00000000       0.62499017
Te       0.00000000       0.00000000       3.94242424       0.00000000       0.00000000      -0.62499017
2
Properties=species:S:1:pos:R:3:forces:R:3 energy=-2.444271776696448 pbc="F F F"
Te       0.00000000       0.00000000       0.00000000       0.00000000       0.00000000       0.55661225
Te       0.00000000       0.00000000       4.00121212       0.00000000       0.00000000      -0.55661225
2
Properties=species:S:1:pos:R:3:forces:R:3 energy=-2.413390073825413 pbc="F F F"
Te       0.00000000       0.00000000       0.00000000       0.00000000       0.00000000       0.49506906
Te       0.00000000       0.00000000       4.06000000       0.00000000       0.00000000      -0.49506906
2
Properties=species:S:1:pos:R:3:forces:R:3 energy=-2.3859499075567667 pbc="F F F"
Te       0.00000000       0.00000000       0.00000000       0.00000000       0.00000000       0.43938866
Te       0.00000000       0.00000000       4.11878788       0.00000000       0.00000000      -0.43938866
2
Properties=species:S:1:pos:R:3:forces:R:3 energy=-2.3616235047259035 pbc="F F F"
Te       0.00000000       0.00000000       0.00000000       0.00000000       0.00000000       0.38904783
Te       0.00000000       0.00000000       4.17757576       0.00000000       0.00000000      -0.38904783
2
Properties=species:S:1:pos:R:3:forces:R:3 energy=-2.3401029941199623 pbc="F F F"
Te       0.00000000       0.00000000       0.00000000       0.00000000       0.00000000       0.34400627
Te       0.00000000       0.00000000       4.23636364       0.00000000       0.00000000      -0.34400627
2
Properties=species:S:1:pos:R:3:forces:R:3 energy=-2.3210684805629826 pbc="F F F"
Te       0.00000000       0.00000000       0.00000000       0.00000000       0.00000000       0.30453658
Te       0.00000000       0.00000000       4.29515152       0.00000000       0.00000000      -0.30453658
2
Properties=species:S:1:pos:R:3:forces:R:3 energy=-2.30418057791222 pbc="F F F"
Te       0.00000000       0.00000000       0.00000000       0.00000000       0.00000000       0.27095813
Te       0.00000000       0.00000000       4.35393939       0.00000000       0.00000000      -0.27095813
2
Properties=species:S:1:pos:R:3:forces:R:3 energy=-2.2890918888279055 pbc="F F F"
Te       0.00000000       0.00000000       0.00000000       0.00000000       0.00000000       0.24338111
Te       0.00000000       0.00000000       4.41272727       0.00000000       0.00000000      -0.24338111
2
Properties=species:S:1:pos:R:3:forces:R:3 energy=-2.275453670989993 pbc="F F F"
Te       0.00000000       0.00000000       0.00000000       0.00000000       0.00000000       0.22154787
Te       0.00000000       0.00000000       4.47151515       0.00000000       0.00000000      -0.22154787
2
Properties=species:S:1:pos:R:3:forces:R:3 energy=-2.2629433447656955 pbc="F F F"
Te       0.00000000       0.00000000       0.00000000       0.00000000       0.00000000       0.20478913
Te       0.00000000       0.00000000       4.53030303       0.00000000       0.00000000      -0.20478913
2
Properties=species:S:1:pos:R:3:forces:R:3 energy=-2.251294289196226 pbc="F F F"
Te       0.00000000       0.00000000       0.00000000       0.00000000       0.00000000       0.19211899
Te       0.00000000       0.00000000       4.58909091       0.00000000       0.00000000      -0.19211899
2
Properties=species:S:1:pos:R:3:forces:R:3 energy=-2.2402968186777903 pbc="F F F"
Te       0.00000000       0.00000000       0.00000000       0.00000000       0.00000000       0.18242882
Te       0.00000000       0.00000000       4.64787879       0.00000000       0.00000000      -0.18242882
2
Properties=species:S:1:pos:R:3:forces:R:3 energy=-2.229807009200744 pbc="F F F"
Te       0.00000000       0.00000000       0.00000000       0.00000000       0.00000000       0.17471014
Te       0.00000000       0.00000000       4.70666667       0.00000000       0.00000000      -0.17471014
2
Properties=species:S:1:pos:R:3:forces:R:3 energy=-2.219730624518397 pbc="F F F"
Te       0.00000000       0.00000000       0.00000000       0.00000000       0.00000000       0.16824640
Te       0.00000000       0.00000000       4.76545455       0.00000000       0.00000000      -0.16824640
2
Properties=species:S:1:pos:R:3:forces:R:3 energy=-2.2100066462581216 pbc="F F F"
Te       0.00000000       0.00000000       0.00000000       0.00000000       0.00000000       0.16269764
Te       0.00000000       0.00000000       4.82424242       0.00000000       0.00000000      -0.16269764
2
Properties=species:S:1:pos:R:3:forces:R:3 energy=-2.2005841156409582 pbc="F F F"
Te       0.00000000       0.00000000       0.00000000       0.00000000       0.00000000       0.15804368
Te       0.00000000       0.00000000       4.88303030       0.00000000       0.00000000      -0.15804368
2
Properties=species:S:1:pos:R:3:forces:R:3 energy=-2.191404155469608 pbc="F F F"
Te       0.00000000       0.00000000       0.00000000       0.00000000       0.00000000       0.15443403
Te       0.00000000       0.00000000       4.94181818       0.00000000       0.00000000      -0.15443403
2
Properties=species:S:1:pos:R:3:forces:R:3 energy=-2.1824038624373405 pbc="F F F"
Te       0.00000000       0.00000000       0.00000000       0.00000000       0.00000000       0.15195312
Te       0.00000000       0.00000000       5.00060606       0.00000000       0.00000000      -0.15195312
2
Properties=species:S:1:pos:R:3:forces:R:3 energy=-2.173520117073526 pbc="F F F"
Te       0.00000000       0.00000000       0.00000000       0.00000000       0.00000000       0.15043199
Te       0.00000000       0.00000000       5.05939394       0.00000000       0.00000000      -0.15043199
2
Properties=species:S:1:pos:R:3:forces:R:3 energy=-2.164707180785067 pbc="F F F"
Te       0.00000000       0.00000000       0.00000000       0.00000000       0.00000000       0.14933792
Te       0.00000000       0.00000000       5.11818182       0.00000000       0.00000000      -0.14933792
2
Properties=species:S:1:pos:R:3:forces:R:3 energy=-2.155969698990626 pbc="F F F"
Te       0.00000000       0.00000000       0.00000000       0.00000000       0.00000000       0.14781304
Te       0.00000000       0.00000000       5.17696970       0.00000000       0.00000000      -0.14781304
2
Properties=species:S:1:pos:R:3:forces:R:3 energy=-2.1473583984988203 pbc="F F F"
Te       0.00000000       0.00000000       0.00000000       0.00000000       0.00000000       0.14480953
Te       0.00000000       0.00000000       5.23575758       0.00000000       0.00000000      -0.14480953
2
Properties=species:S:1:pos:R:3:forces:R:3 energy=-2.1389913511112755 pbc="F F F"
Te       0.00000000       0.00000000       0.00000000       0.00000000       0.00000000       0.13933665
Te       0.00000000       0.00000000       5.29454545       0.00000000       0.00000000      -0.13933665
2
Properties=species:S:1:pos:R:3:forces:R:3 energy=-2.1310385445231574 pbc="F F F"
Te       0.00000000       0.00000000       0.00000000       0.00000000       0.00000000       0.13069096
Te       0.00000000       0.00000000       5.35333333       0.00000000       0.00000000      -0.13069096
2
Properties=species:S:1:pos:R:3:forces:R:3 energy=-2.1236922962446103 pbc="F F F"
Te       0.00000000       0.00000000       0.00000000       0.00000000       0.00000000       0.11865950
Te       0.00000000       0.00000000       5.41212121       0.00000000       0.00000000      -0.11865950
2
Properties=species:S:1:pos:R:3:forces:R:3 energy=-2.1171463757200137 pbc="F F F"
Te       0.00000000       0.00000000       0.00000000       0.00000000       0.00000000       0.10362086
Te       0.00000000       0.00000000       5.47090909       0.00000000       0.00000000      -0.10362086
2
Properties=species:S:1:pos:R:3:forces:R:3 energy=-2.111550946384358 pbc="F F F"
Te       0.00000000       0.00000000       0.00000000       0.00000000       0.00000000       0.08647943
Te       0.00000000       0.00000000       5.52969697       0.00000000       0.00000000      -0.08647943
2
Properties=species:S:1:pos:R:3:forces:R:3 energy=-2.1069944854490044 pbc="F F F"
Te       0.00000000       0.00000000       0.00000000       0.00000000       0.00000000       0.06854333
Te       0.00000000       0.00000000       5.58848485       0.00000000       0.00000000      -0.06854333
2
Properties=species:S:1:pos:R:3:forces:R:3 energy=-2.1034790485580848 pbc="F F F"
Te       0.00000000       0.00000000       0.00000000       0.00000000       0.00000000       0.05128230
Te       0.00000000       0.00000000       5.64727273       0.00000000       0.00000000      -0.05128230
2
Properties=species:S:1:pos:R:3:forces:R:3 energy=-2.1009252702430135 pbc="F F F"
Te       0.00000000       0.00000000       0.00000000       0.00000000       0.00000000       0.03606734
Te       0.00000000       0.00000000       5.70606061       0.00000000       0.00000000      -0.03606734
2
Properties=species:S:1:pos:R:3:forces:R:3 energy=-2.099175736628642 pbc="F F F"
Te       0.00000000       0.00000000       0.00000000       0.00000000       0.00000000       0.02391184
Te       0.00000000       0.00000000       5.76484848       0.00000000       0.00000000      -0.02391184
2
Properties=species:S:1:pos:R:3:forces:R:3 energy=-2.098041303577957 pbc="F F F"
Te       0.00000000       0.00000000       0.00000000       0.00000000       0.00000000       0.01534964
Te       0.00000000       0.00000000       5.82363636       0.00000000       0.00000000      -0.01534964
2
Properties=species:S:1:pos:R:3:forces:R:3 energy=-2.097303441280095 pbc="F F F"
Te       0.00000000       0.00000000       0.00000000       0.00000000       0.00000000       0.01027143
Te       0.00000000       0.00000000       5.88242424       0.00000000       0.00000000      -0.01027143
2
Properties=species:S:1:pos:R:3:forces:R:3 energy=-2.096778425076963 pbc="F F F"
Te       0.00000000       0.00000000       0.00000000       0.00000000       0.00000000       0.00797374
Te       0.00000000       0.00000000       5.94121212       0.00000000       0.00000000      -0.00797374
2
Properties=species:S:1:pos:R:3:forces:R:3 energy=-2.0963340303074656 pbc="F F F"
Te       0.00000000       0.00000000       0.00000000       0.00000000       0.00000000       0.00726031
Te       0.00000000       0.00000000       6.00000000       0.00000000       0.00000000      -0.00726031
