2
Properties=species:S:1:pos:R:3:forces:R:3 energy=1203358847.8834116 pbc="F F F"
Th       0.00000000       0.00000000       0.00000000       0.00000000       0.00000000 -6836201472.00000000
Th       0.00000000       0.00000000       0.10000000       0.00000000       0.00000000 6836201472.00000000
2
Properties=species:S:1:pos:R:3:forces:R:3 energy=768770815.8834116 pbc="F F F"
Th       0.00000000       0.00000000       0.00000000       0.00000000       0.00000000 -7240623616.00000000
Th       0.00000000       0.00000000       0.15959596       0.00000000       0.00000000 7240623616.00000000
2
Properties=species:S:1:pos:R:3:forces:R:3 energy=386907455.88341165 pbc="F F F"
Th       0.00000000       0.00000000       0.00000000       0.00000000       0.00000000 -5329505280.00000000
Th       0.00000000       0.00000000       0.21919192       0.00000000       0.00000000 5329505280.00000000
2
Properties=species:S:1:pos:R:3:forces:R:3 energy=145567087.88341168 pbc="F F F"
Th       0.00000000       0.00000000       0.00000000       0.00000000       0.00000000 -2803449088.00000000
Th       0.00000000       0.00000000       0.27878788       0.00000000       0.00000000 2803449088.00000000
2
Properties=species:S:1:pos:R:3:forces:R:3 energy=37701975.88341166 pbc="F F F"
Th       0.00000000       0.00000000       0.00000000       0.00000000       0.00000000 -995345024.00000000
Th       0.00000000       0.00000000       0.33838384       0.00000000       0.00000000 995345024.00000000
2
Properties=species:S:1:pos:R:3:forces:R:3 energy=6005810.383411664 pbc="F F F"
Th       0.00000000       0.00000000       0.00000000       0.00000000       0.00000000 -216801824.00000000
Th       0.00000000       0.00000000       0.39797980       0.00000000       0.00000000 216801824.00000000
2
Properties=species:S:1:pos:R:3:forces:R:3 energy=446049.2584116764 pbc="F F F"
Th       0.00000000       0.00000000       0.00000000       0.00000000       0.00000000 -24102890.00000000
Th       0.00000000       0.00000000       0.45757576       0.00000000       0.00000000 24102890.00000000
2
Properties=species:S:1:pos:R:3:forces:R:3 energy=-10715.40076799842 pbc="F F F"
Th       0.00000000       0.00000000       0.00000000       0.00000000       0.00000000  317726.81250000
Th       0.00000000       0.00000000       0.51717172       0.00000000       0.00000000 -317726.81250000
2
Properties=species:S:1:pos:R:3:forces:R:3 energy=-71.63374679387954 pbc="F F F"
Th       0.00000000       0.00000000       0.00000000       0.00000000       0.00000000    1543.92333984
Th       0.00000000       0.00000000       0.57676768       0.00000000       0.00000000   -1543.92333984
2
Properties=species:S:1:pos:R:3:forces:R:3 energy=-16.377021444586376 pbc="F F F"
Th       0.00000000       0.00000000       0.00000000       0.00000000       0.00000000     218.26904297
Th       0.00000000       0.00000000       0.63636364       0.00000000       0.00000000    -218.26904297
2
Properties=species:S:1:pos:R:3:forces:R:3 energy=136.2649120599322 pbc="F F F"
Th       0.00000000       0.00000000       0.00000000       0.00000000       0.00000000    1752.78881836
Th       0.00000000       0.00000000       0.69595960       0.00000000       0.00000000   -1752.78881836
2
Properties=species:S:1:pos:R:3:forces:R:3 energy=278.6166272365218 pbc="F F F"
Th       0.00000000       0.00000000       0.00000000       0.00000000       0.00000000    2471.67187500
Th       0.00000000       0.00000000       0.75555556       0.00000000       0.00000000   -2471.67187500
2
Properties=species:S:1:pos:R:3:forces:R:3 energy=412.5849196249054 pbc="F F F"
Th       0.00000000       0.00000000       0.00000000       0.00000000       0.00000000    1047.79406738
Th       0.00000000       0.00000000       0.81515152       0.00000000       0.00000000   -1047.79406738
2
Properties=species:S:1:pos:R:3:forces:R:3 energy=365.5696000034273 pbc="F F F"
Th       0.00000000       0.00000000       0.00000000       0.00000000       0.00000000   -2463.03247070
Th       0.00000000       0.00000000       0.87474747       0.00000000       0.00000000    2463.03247070
2
Properties=species:S:1:pos:R:3:forces:R:3 energy=213.28511543158567 pbc="F F F"
Th       0.00000000       0.00000000       0.00000000       0.00000000       0.00000000   -2360.34301758
Th       0.00000000       0.00000000       0.93434343       0.00000000       0.00000000    2360.34301758
2
Properties=species:S:1:pos:R:3:forces:R:3 energy=102.20294725796533 pbc="F F F"
Th       0.00000000       0.00000000       0.00000000       0.00000000       0.00000000   -1405.36218262
Th       0.00000000       0.00000000       0.99393939       0.00000000       0.00000000    1405.36218262
2
Properties=species:S:1:pos:R:3:forces:R:3 energy=44.30705470590692 pbc="F F F"
Th       0.00000000       0.00000000       0.00000000       0.00000000       0.00000000    -647.72155762
Th       0.00000000       0.00000000       1.05353535       0.00000000       0.00000000     647.72155762
2
Properties=species:S:1:pos:R:3:forces:R:3 energy=18.482493368087752 pbc="F F F"
Th       0.00000000       0.00000000       0.00000000       0.00000000       0.00000000    -243.30696106
Th       0.00000000       0.00000000       1.11313131       0.00000000       0.00000000     243.30696106
2
Properties=species:S:1:pos:R:3:forces:R:3 energy=8.88446233342502 pbc="F F F"
Th       0.00000000       0.00000000       0.00000000       0.00000000       0.00000000    -121.27133942
Th       0.00000000       0.00000000       1.17272727       0.00000000       0.00000000     121.27133942
2
Properties=species:S:1:pos:R:3:forces:R:3 energy=2.872813502433372 pbc="F F F"
Th       0.00000000       0.00000000       0.00000000       0.00000000       0.00000000     -74.37000275
Th       0.00000000       0.00000000       1.23232323       0.00000000       0.00000000      74.37000275
2
Properties=species:S:1:pos:R:3:forces:R:3 energy=-0.5494737829662971 pbc="F F F"
Th       0.00000000       0.00000000       0.00000000       0.00000000       0.00000000     -44.06129074
Th       0.00000000       0.00000000       1.29191919       0.00000000       0.00000000      44.06129074
2
Properties=species:S:1:pos:R:3:forces:R:3 energy=-2.6686963038999663 pbc="F F F"
Th       0.00000000       0.00000000       0.00000000       0.00000000       0.00000000     -26.52582169
Th       0.00000000       0.00000000       1.35151515       0.00000000       0.00000000      26.52582169
2
Properties=species:S:1:pos:R:3:forces:R:3 energy=-3.837295721374476 pbc="F F F"
Th       0.00000000       0.00000000       0.00000000       0.00000000       0.00000000     -15.58123970
Th       0.00000000       0.00000000       1.41111111       0.00000000       0.00000000      15.58123970
2
Properties=species:S:1:pos:R:3:forces:R:3 energy=-4.6332977645619 pbc="F F F"
Th       0.00000000       0.00000000       0.00000000       0.00000000       0.00000000      -9.60786438
Th       0.00000000       0.00000000       1.47070707       0.00000000       0.00000000       9.60786438
2
Properties=species:S:1:pos:R:3:forces:R:3 energy=-4.729307833947007 pbc="F F F"
Th       0.00000000       0.00000000       0.00000000       0.00000000       0.00000000       4.79990721
Th       0.00000000       0.00000000       1.53030303       0.00000000       0.00000000      -4.79990721
2
Properties=species:S:1:pos:R:3:forces:R:3 energy=-4.431605926254023 pbc="F F F"
Th       0.00000000       0.00000000       0.00000000       0.00000000       0.00000000       3.96562266
Th       0.00000000       0.00000000       1.58989899       0.00000000       0.00000000      -3.96562266
2
Properties=species:S:1:pos:R:3:forces:R:3 energy=-4.174924301218695 pbc="F F F"
Th       0.00000000       0.00000000       0.00000000       0.00000000       0.00000000       5.56665659
Th       0.00000000       0.00000000       1.64949495       0.00000000       0.00000000      -5.56665659
2
Properties=species:S:1:pos:R:3:forces:R:3 energy=-3.829029016794547 pbc="F F F"
Th       0.00000000       0.00000000       0.00000000       0.00000000       0.00000000       5.03887749
Th       0.00000000       0.00000000       1.70909091       0.00000000       0.00000000      -5.03887749
2
Properties=species:S:1:pos:R:3:forces:R:3 energy=-3.5624264925554128 pbc="F F F"
Th       0.00000000       0.00000000       0.00000000       0.00000000       0.00000000       4.29182720
Th       0.00000000       0.00000000       1.76868687       0.00000000       0.00000000      -4.29182720
2
Properties=species:S:1:pos:R:3:forces:R:3 energy=-3.3663808436798175 pbc="F F F"
Th       0.00000000       0.00000000       0.00000000       0.00000000       0.00000000       2.23875928
Th       0.00000000       0.00000000       1.82828283       0.00000000       0.00000000      -2.23875928
2
Properties=species:S:1:pos:R:3:forces:R:3 energy=-3.2458718786796856 pbc="F F F"
Th       0.00000000       0.00000000       0.00000000       0.00000000       0.00000000       1.76505578
Th       0.00000000       0.00000000       1.88787879       0.00000000       0.00000000      -1.76505578
2
Properties=species:S:1:pos:R:3:forces:R:3 energy=-3.184103181383543 pbc="F F F"
Th       0.00000000       0.00000000       0.00000000       0.00000000       0.00000000       0.15361655
Th       0.00000000       0.00000000       1.94747475       0.00000000       0.00000000      -0.15361655
2
Properties=species:S:1:pos:R:3:forces:R:3 energy=-3.245724016918356 pbc="F F F"
Th       0.00000000       0.00000000       0.00000000       0.00000000       0.00000000      -2.41990376
Th       0.00000000       0.00000000       2.00707071       0.00000000       0.00000000       2.41990376
2
Properties=species:S:1:pos:R:3:forces:R:3 energy=-3.498282769647809 pbc="F F F"
Th       0.00000000       0.00000000       0.00000000       0.00000000       0.00000000      -5.85106564
Th       0.00000000       0.00000000       2.06666667       0.00000000       0.00000000       5.85106564
2
Properties=species:S:1:pos:R:3:forces:R:3 energy=-3.862646928669966 pbc="F F F"
Th       0.00000000       0.00000000       0.00000000       0.00000000       0.00000000      -5.78114939
Th       0.00000000       0.00000000       2.12626263       0.00000000       0.00000000       5.78114939
2
Properties=species:S:1:pos:R:3:forces:R:3 energy=-4.167415980299295 pbc="F F F"
Th       0.00000000       0.00000000       0.00000000       0.00000000       0.00000000      -4.50667763
Th       0.00000000       0.00000000       2.18585859       0.00000000       0.00000000       4.50667763
2
Properties=species:S:1:pos:R:3:forces:R:3 energy=-4.399697648275074 pbc="F F F"
Th       0.00000000       0.00000000       0.00000000       0.00000000       0.00000000      -3.28925490
Th       0.00000000       0.00000000       2.24545455       0.00000000       0.00000000       3.28925490
2
Properties=species:S:1:pos:R:3:forces:R:3 energy=-4.5699569843375585 pbc="F F F"
Th       0.00000000       0.00000000       0.00000000       0.00000000       0.00000000      -2.51140285
Th       0.00000000       0.00000000       2.30505051       0.00000000       0.00000000       2.51140285
2
Properties=species:S:1:pos:R:3:forces:R:3 energy=-4.701049138931888 pbc="F F F"
Th       0.00000000       0.00000000       0.00000000       0.00000000       0.00000000      -1.87288129
Th       0.00000000       0.00000000       2.36464646       0.00000000       0.00000000       1.87288129
2
Properties=species:S:1:pos:R:3:forces:R:3 energy=-4.793854635548126 pbc="F F F"
Th       0.00000000       0.00000000       0.00000000       0.00000000       0.00000000      -1.27147710
Th       0.00000000       0.00000000       2.42424242       0.00000000       0.00000000       1.27147710
2
Properties=species:S:1:pos:R:3:forces:R:3 energy=-4.859185473308371 pbc="F F F"
Th       0.00000000       0.00000000       0.00000000       0.00000000       0.00000000      -0.98820829
Th       0.00000000       0.00000000       2.48383838       0.00000000       0.00000000       0.98820829
2
Properties=species:S:1:pos:R:3:forces:R:3 energy=-4.916263113442927 pbc="F F F"
Th       0.00000000       0.00000000       0.00000000       0.00000000       0.00000000      -0.93376678
Th       0.00000000       0.00000000       2.54343434       0.00000000       0.00000000       0.93376678
2
Properties=species:S:1:pos:R:3:forces:R:3 energy=-4.970934625212372 pbc="F F F"
Th       0.00000000       0.00000000       0.00000000       0.00000000       0.00000000      -0.91330552
Th       0.00000000       0.00000000       2.60303030       0.00000000       0.00000000       0.91330552
2
Properties=species:S:1:pos:R:3:forces:R:3 energy=-5.026645573893112 pbc="F F F"
Th       0.00000000       0.00000000       0.00000000       0.00000000       0.00000000      -0.96109170
Th       0.00000000       0.00000000       2.66262626       0.00000000       0.00000000       0.96109170
2
Properties=species:S:1:pos:R:3:forces:R:3 energy=-5.084768211455106 pbc="F F F"
Th       0.00000000       0.00000000       0.00000000       0.00000000       0.00000000      -0.97570127
Th       0.00000000       0.00000000       2.72222222       0.00000000       0.00000000       0.97570127
2
Properties=species:S:1:pos:R:3:forces:R:3 energy=-5.1411720637200755 pbc="F F F"
Th       0.00000000       0.00000000       0.00000000       0.00000000       0.00000000      -0.90452057
Th       0.00000000       0.00000000       2.78181818       0.00000000       0.00000000       0.90452057
2
Properties=species:S:1:pos:R:3:forces:R:3 energy=-5.191575735213261 pbc="F F F"
Th       0.00000000       0.00000000       0.00000000       0.00000000       0.00000000      -0.78248227
Th       0.00000000       0.00000000       2.84141414       0.00000000       0.00000000       0.78248227
2
Properties=species:S:1:pos:R:3:forces:R:3 energy=-5.234215555997799 pbc="F F F"
Th       0.00000000       0.00000000       0.00000000       0.00000000       0.00000000      -0.64848214
Th       0.00000000       0.00000000       2.90101010       0.00000000       0.00000000       0.64848214
2
Properties=species:S:1:pos:R:3:forces:R:3 energy=-5.268874589165146 pbc="F F F"
Th       0.00000000       0.00000000       0.00000000       0.00000000       0.00000000      -0.51404440
Th       0.00000000       0.00000000       2.96060606       0.00000000       0.00000000       0.51404440
2
Properties=species:S:1:pos:R:3:forces:R:3 energy=-5.2952957167725865 pbc="F F F"
Th       0.00000000       0.00000000       0.00000000       0.00000000       0.00000000      -0.37083331
Th       0.00000000       0.00000000       3.02020202       0.00000000       0.00000000       0.37083331
2
Properties=species:S:1:pos:R:3:forces:R:3 energy=-5.3130252625979155 pbc="F F F"
Th       0.00000000       0.00000000       0.00000000       0.00000000       0.00000000      -0.22575107
Th       0.00000000       0.00000000       3.07979798       0.00000000       0.00000000       0.22575107
2
Properties=species:S:1:pos:R:3:forces:R:3 energy=-5.322731046072445 pbc="F F F"
Th       0.00000000       0.00000000       0.00000000       0.00000000       0.00000000      -0.10601190
Th       0.00000000       0.00000000       3.13939394       0.00000000       0.00000000       0.10601190
2
Properties=species:S:1:pos:R:3:forces:R:3 energy=-5.326324211839018 pbc="F F F"
Th       0.00000000       0.00000000       0.00000000       0.00000000       0.00000000      -0.01922142
Th       0.00000000       0.00000000       3.19898990       0.00000000       0.00000000       0.01922142
2
Properties=species:S:1:pos:R:3:forces:R:3 energy=-5.325405070069777 pbc="F F F"
Th       0.00000000       0.00000000       0.00000000       0.00000000       0.00000000       0.04812103
Th       0.00000000       0.00000000       3.25858586       0.00000000       0.00000000      -0.04812103
2
Properties=species:S:1:pos:R:3:forces:R:3 energy=-5.320768725702886 pbc="F F F"
Th       0.00000000       0.00000000       0.00000000       0.00000000       0.00000000       0.10620356
Th       0.00000000       0.00000000       3.31818182       0.00000000       0.00000000      -0.10620356
2
Properties=species:S:1:pos:R:3:forces:R:3 energy=-5.312905209265572 pbc="F F F"
Th       0.00000000       0.00000000       0.00000000       0.00000000       0.00000000       0.15601818
Th       0.00000000       0.00000000       3.37777778       0.00000000       0.00000000      -0.15601818
2
Properties=species:S:1:pos:R:3:forces:R:3 energy=-5.302357652935851 pbc="F F F"
Th       0.00000000       0.00000000       0.00000000       0.00000000       0.00000000       0.19660915
Th       0.00000000       0.00000000       3.43737374       0.00000000       0.00000000      -0.19660915
2
Properties=species:S:1:pos:R:3:forces:R:3 energy=-5.289562377368304 pbc="F F F"
Th       0.00000000       0.00000000       0.00000000       0.00000000       0.00000000       0.23287517
Th       0.00000000       0.00000000       3.49696970       0.00000000       0.00000000      -0.23287517
2
Properties=species:S:1:pos:R:3:forces:R:3 energy=-5.274511189615757 pbc="F F F"
Th       0.00000000       0.00000000       0.00000000       0.00000000       0.00000000       0.27365139
Th       0.00000000       0.00000000       3.55656566       0.00000000       0.00000000      -0.27365139
2
Properties=species:S:1:pos:R:3:forces:R:3 energy=-5.256751294430263 pbc="F F F"
Th       0.00000000       0.00000000       0.00000000       0.00000000       0.00000000       0.32395807
Th       0.00000000       0.00000000       3.61616162       0.00000000       0.00000000      -0.32395807
2
Properties=species:S:1:pos:R:3:forces:R:3 energy=-5.235736436480865 pbc="F F F"
Th       0.00000000       0.00000000       0.00000000       0.00000000       0.00000000       0.38214928
Th       0.00000000       0.00000000       3.67575758       0.00000000       0.00000000      -0.38214928
2
Properties=species:S:1:pos:R:3:forces:R:3 energy=-5.2111454022327015 pbc="F F F"
Th       0.00000000       0.00000000       0.00000000       0.00000000       0.00000000       0.44313276
Th       0.00000000       0.00000000       3.73535354       0.00000000       0.00000000      -0.44313276
2
Properties=species:S:1:pos:R:3:forces:R:3 energy=-5.182958212522011 pbc="F F F"
Th       0.00000000       0.00000000       0.00000000       0.00000000       0.00000000       0.50223517
Th       0.00000000       0.00000000       3.79494949       0.00000000       0.00000000      -0.50223517
2
Properties=species:S:1:pos:R:3:forces:R:3 energy=-5.151376229325456 pbc="F F F"
Th       0.00000000       0.00000000       0.00000000       0.00000000       0.00000000       0.55670965
Th       0.00000000       0.00000000       3.85454545       0.00000000       0.00000000      -0.55670965
2
Properties=species:S:1:pos:R:3:forces:R:3 energy=-5.11671709952986 pbc="F F F"
Th       0.00000000       0.00000000       0.00000000       0.00000000       0.00000000       0.60534626
Th       0.00000000       0.00000000       3.91414141       0.00000000       0.00000000      -0.60534626
2
Properties=species:S:1:pos:R:3:forces:R:3 energy=-5.079351875783764 pbc="F F F"
Th       0.00000000       0.00000000       0.00000000       0.00000000       0.00000000       0.64765865
Th       0.00000000       0.00000000       3.97373737       0.00000000       0.00000000      -0.64765865
2
Properties=species:S:1:pos:R:3:forces:R:3 energy=-5.039651712106017 pbc="F F F"
Th       0.00000000       0.00000000       0.00000000       0.00000000       0.00000000       0.68344414
Th       0.00000000       0.00000000       4.03333333       0.00000000       0.00000000      -0.68344414
2
Properties=species:S:1:pos:R:3:forces:R:3 energy=-4.998014490738905 pbc="F F F"
Th       0.00000000       0.00000000       0.00000000       0.00000000       0.00000000       0.71267557
Th       0.00000000       0.00000000       4.09292929       0.00000000       0.00000000      -0.71267557
2
Properties=species:S:1:pos:R:3:forces:R:3 energy=-4.954834386933403 pbc="F F F"
Th       0.00000000       0.00000000       0.00000000       0.00000000       0.00000000       0.73541570
Th       0.00000000       0.00000000       4.15252525       0.00000000       0.00000000      -0.73541570
2
Properties=species:S:1:pos:R:3:forces:R:3 energy=-4.910490519892039 pbc="F F F"
Th       0.00000000       0.00000000       0.00000000       0.00000000       0.00000000       0.75167304
Th       0.00000000       0.00000000       4.21212121       0.00000000       0.00000000      -0.75167304
2
Properties=species:S:1:pos:R:3:forces:R:3 energy=-4.86537550597759 pbc="F F F"
Th       0.00000000       0.00000000       0.00000000       0.00000000       0.00000000       0.76127601
Th       0.00000000       0.00000000       4.27171717       0.00000000       0.00000000      -0.76127601
2
Properties=species:S:1:pos:R:3:forces:R:3 energy=-4.8198898570444255 pbc="F F F"
Th       0.00000000       0.00000000       0.00000000       0.00000000       0.00000000       0.76392454
Th       0.00000000       0.00000000       4.33131313       0.00000000       0.00000000      -0.76392454
2
Properties=species:S:1:pos:R:3:forces:R:3 energy=-4.774462999287332 pbc="F F F"
Th       0.00000000       0.00000000       0.00000000       0.00000000       0.00000000       0.75937396
Th       0.00000000       0.00000000       4.39090909       0.00000000       0.00000000      -0.75937396
2
Properties=species:S:1:pos:R:3:forces:R:3 energy=-4.729522749327747 pbc="F F F"
Th       0.00000000       0.00000000       0.00000000       0.00000000       0.00000000       0.74767935
Th       0.00000000       0.00000000       4.45050505       0.00000000       0.00000000      -0.74767935
2
Properties=species:S:1:pos:R:3:forces:R:3 energy=-4.685480207480155 pbc="F F F"
Th       0.00000000       0.00000000       0.00000000       0.00000000       0.00000000       0.72929060
Th       0.00000000       0.00000000       4.51010101       0.00000000       0.00000000      -0.72929060
2
Properties=species:S:1:pos:R:3:forces:R:3 energy=-4.6427105575528795 pbc="F F F"
Th       0.00000000       0.00000000       0.00000000       0.00000000       0.00000000       0.70506418
Th       0.00000000       0.00000000       4.56969697       0.00000000       0.00000000      -0.70506418
2
Properties=species:S:1:pos:R:3:forces:R:3 energy=-4.601536166807442 pbc="F F F"
Th       0.00000000       0.00000000       0.00000000       0.00000000       0.00000000       0.67617333
Th       0.00000000       0.00000000       4.62929293       0.00000000       0.00000000      -0.67617333
2
Properties=species:S:1:pos:R:3:forces:R:3 energy=-4.56218448490447 pbc="F F F"
Th       0.00000000       0.00000000       0.00000000       0.00000000       0.00000000       0.64403284
Th       0.00000000       0.00000000       4.68888889       0.00000000       0.00000000      -0.64403284
2
Properties=species:S:1:pos:R:3:forces:R:3 energy=-4.524805355761208 pbc="F F F"
Th       0.00000000       0.00000000       0.00000000       0.00000000       0.00000000       0.61018586
Th       0.00000000       0.00000000       4.74848485       0.00000000       0.00000000      -0.61018586
2
Properties=species:S:1:pos:R:3:forces:R:3 energy=-4.489457571076426 pbc="F F F"
Th       0.00000000       0.00000000       0.00000000       0.00000000       0.00000000       0.57623142
Th       0.00000000       0.00000000       4.80808081       0.00000000       0.00000000      -0.57623142
2
Properties=species:S:1:pos:R:3:forces:R:3 energy=-4.456097597301017 pbc="F F F"
Th       0.00000000       0.00000000       0.00000000       0.00000000       0.00000000       0.54366320
Th       0.00000000       0.00000000       4.86767677       0.00000000       0.00000000      -0.54366320
2
Properties=species:S:1:pos:R:3:forces:R:3 energy=-4.424604295142494 pbc="F F F"
Th       0.00000000       0.00000000       0.00000000       0.00000000       0.00000000       0.51366597
Th       0.00000000       0.00000000       4.92727273       0.00000000       0.00000000      -0.51366597
2
Properties=species:S:1:pos:R:3:forces:R:3 energy=-4.394803715097213 pbc="F F F"
Th       0.00000000       0.00000000       0.00000000       0.00000000       0.00000000       0.48687717
Th       0.00000000       0.00000000       4.98686869       0.00000000       0.00000000      -0.48687717
2
Properties=species:S:1:pos:R:3:forces:R:3 energy=-4.366512960133286 pbc="F F F"
Th       0.00000000       0.00000000       0.00000000       0.00000000       0.00000000       0.46320122
Th       0.00000000       0.00000000       5.04646465       0.00000000       0.00000000      -0.46320122
2
Properties=species:S:1:pos:R:3:forces:R:3 energy=-4.3395535054527885 pbc="F F F"
Th       0.00000000       0.00000000       0.00000000       0.00000000       0.00000000       0.44173062
Th       0.00000000       0.00000000       5.10606061       0.00000000       0.00000000      -0.44173062
2
Properties=species:S:1:pos:R:3:forces:R:3 energy=-4.313844658574769 pbc="F F F"
Th       0.00000000       0.00000000       0.00000000       0.00000000       0.00000000       0.42087942
Th       0.00000000       0.00000000       5.16565657       0.00000000       0.00000000      -0.42087942
2
Properties=species:S:1:pos:R:3:forces:R:3 energy=-4.289413007379391 pbc="F F F"
Th       0.00000000       0.00000000       0.00000000       0.00000000       0.00000000       0.39867175
Th       0.00000000       0.00000000       5.22525253       0.00000000       0.00000000      -0.39867175
2
Properties=species:S:1:pos:R:3:forces:R:3 energy=-4.266396139770532 pbc="F F F"
Th       0.00000000       0.00000000       0.00000000       0.00000000       0.00000000       0.37318245
Th       0.00000000       0.00000000       5.28484848       0.00000000       0.00000000      -0.37318245
2
Properties=species:S:1:pos:R:3:forces:R:3 energy=-4.245027416564948 pbc="F F F"
Th       0.00000000       0.00000000       0.00000000       0.00000000       0.00000000       0.34297401
Th       0.00000000       0.00000000       5.34444444       0.00000000       0.00000000      -0.34297401
2
Properties=species:S:1:pos:R:3:forces:R:3 energy=-4.225620522633878 pbc="F F F"
Th       0.00000000       0.00000000       0.00000000       0.00000000       0.00000000       0.30748761
Th       0.00000000       0.00000000       5.40404040       0.00000000       0.00000000      -0.30748761
2
Properties=species:S:1:pos:R:3:forces:R:3 energy=-4.208468364754218 pbc="F F F"
Th       0.00000000       0.00000000       0.00000000       0.00000000       0.00000000       0.26727229
Th       0.00000000       0.00000000       5.46363636       0.00000000       0.00000000      -0.26727229
2
Properties=species:S:1:pos:R:3:forces:R:3 energy=-4.193825772422294 pbc="F F F"
Th       0.00000000       0.00000000       0.00000000       0.00000000       0.00000000       0.22397332
Th       0.00000000       0.00000000       5.52323232       0.00000000       0.00000000      -0.22397332
2
Properties=species:S:1:pos:R:3:forces:R:3 energy=-4.1817950379289615 pbc="F F F"
Th       0.00000000       0.00000000       0.00000000       0.00000000       0.00000000       0.18004623
Th       0.00000000       0.00000000       5.58282828       0.00000000       0.00000000      -0.18004623
2
Properties=species:S:1:pos:R:3:forces:R:3 energy=-4.172319972566158 pbc="F F F"
Th       0.00000000       0.00000000       0.00000000       0.00000000       0.00000000       0.13845727
Th       0.00000000       0.00000000       5.64242424       0.00000000       0.00000000      -0.13845727
2
Properties=species:S:1:pos:R:3:forces:R:3 energy=-4.165180241601802 pbc="F F F"
Th       0.00000000       0.00000000       0.00000000       0.00000000       0.00000000       0.10203670
Th       0.00000000       0.00000000       5.70202020       0.00000000       0.00000000      -0.10203670
2
Properties=species:S:1:pos:R:3:forces:R:3 energy=-4.160010304717588 pbc="F F F"
Th       0.00000000       0.00000000       0.00000000       0.00000000       0.00000000       0.07306099
Th       0.00000000       0.00000000       5.76161616       0.00000000       0.00000000      -0.07306099
2
Properties=species:S:1:pos:R:3:forces:R:3 energy=-4.156301190309094 pbc="F F F"
Th       0.00000000       0.00000000       0.00000000       0.00000000       0.00000000       0.05268238
Th       0.00000000       0.00000000       5.82121212       0.00000000       0.00000000      -0.05268238
2
Properties=species:S:1:pos:R:3:forces:R:3 energy=-4.153566517180209 pbc="F F F"
Th       0.00000000       0.00000000       0.00000000       0.00000000       0.00000000       0.04074559
Th       0.00000000       0.00000000       5.88080808       0.00000000       0.00000000      -0.04074559
2
Properties=species:S:1:pos:R:3:forces:R:3 energy=-4.1513155699147255 pbc="F F F"
Th       0.00000000       0.00000000       0.00000000       0.00000000       0.00000000       0.03555444
Th       0.00000000       0.00000000       5.94040404       0.00000000       0.00000000      -0.03555444
2
Properties=species:S:1:pos:R:3:forces:R:3 energy=-4.149247968814124 pbc="F F F"
Th       0.00000000       0.00000000       0.00000000       0.00000000       0.00000000       0.03418691
Th       0.00000000       0.00000000       6.00000000       0.00000000       0.00000000      -0.03418691
