2
Properties=species:S:1:pos:R:3:forces:R:3 energy=-57392636.0467467 pbc="F F F"
Ti       0.00000000       0.00000000       0.00000000       0.00000000       0.00000000 284410784.00000000
Ti       0.00000000       0.00000000       0.10000000       0.00000000       0.00000000 -284410784.00000000
2
Properties=species:S:1:pos:R:3:forces:R:3 energy=-38818732.0467467 pbc="F F F"
Ti       0.00000000       0.00000000       0.00000000       0.00000000       0.00000000 318913984.00000000
Ti       0.00000000       0.00000000       0.15959596       0.00000000       0.00000000 -318913984.00000000
2
Properties=species:S:1:pos:R:3:forces:R:3 energy=-21348694.0467467 pbc="F F F"
Ti       0.00000000       0.00000000       0.00000000       0.00000000       0.00000000 254801136.00000000
Ti       0.00000000       0.00000000       0.21919192       0.00000000       0.00000000 -254801136.00000000
2
Properties=species:S:1:pos:R:3:forces:R:3 energy=-9270908.0467467 pbc="F F F"
Ti       0.00000000       0.00000000       0.00000000       0.00000000       0.00000000 149360224.00000000
Ti       0.00000000       0.00000000       0.27878788       0.00000000       0.00000000 -149360224.00000000
2
Properties=species:S:1:pos:R:3:forces:R:3 energy=-3143499.5467466963 pbc="F F F"
Ti       0.00000000       0.00000000       0.00000000       0.00000000       0.00000000 62561028.00000000
Ti       0.00000000       0.00000000       0.33838384       0.00000000       0.00000000 -62561028.00000000
2
Properties=species:S:1:pos:R:3:forces:R:3 energy=-957058.109246693 pbc="F F F"
Ti       0.00000000       0.00000000       0.00000000       0.00000000       0.00000000 18999408.00000000
Ti       0.00000000       0.00000000       0.39797980       0.00000000       0.00000000 -18999408.00000000
2
Properties=species:S:1:pos:R:3:forces:R:3 energy=-314518.5467466835 pbc="F F F"
Ti       0.00000000       0.00000000       0.00000000       0.00000000       0.00000000 5138344.50000000
Ti       0.00000000       0.00000000       0.45757576       0.00000000       0.00000000 -5138344.50000000
2
Properties=species:S:1:pos:R:3:forces:R:3 energy=-137119.81237166762 pbc="F F F"
Ti       0.00000000       0.00000000       0.00000000       0.00000000       0.00000000 1711980.50000000
Ti       0.00000000       0.00000000       0.51717172       0.00000000       0.00000000 -1711980.50000000
2
Properties=species:S:1:pos:R:3:forces:R:3 energy=-6413.174676323437 pbc="F F F"
Ti       0.00000000       0.00000000       0.00000000       0.00000000       0.00000000  932757.50000000
Ti       0.00000000       0.00000000       0.57676768       0.00000000       0.00000000 -932757.50000000
2
Properties=species:S:1:pos:R:3:forces:R:3 energy=9153.511847167916 pbc="F F F"
Ti       0.00000000       0.00000000       0.00000000       0.00000000       0.00000000  -23481.38671875
Ti       0.00000000       0.00000000       0.63636364       0.00000000       0.00000000   23481.38671875
2
Properties=species:S:1:pos:R:3:forces:R:3 energy=6640.918585534698 pbc="F F F"
Ti       0.00000000       0.00000000       0.00000000       0.00000000       0.00000000  -42740.14453125
Ti       0.00000000       0.00000000       0.69595960       0.00000000       0.00000000   42740.14453125
2
Properties=species:S:1:pos:R:3:forces:R:3 energy=4916.946905977078 pbc="F F F"
Ti       0.00000000       0.00000000       0.00000000       0.00000000       0.00000000  -30492.13476562
Ti       0.00000000       0.00000000       0.75555556       0.00000000       0.00000000   30492.13476562
2
Properties=species:S:1:pos:R:3:forces:R:3 energy=3135.705939376608 pbc="F F F"
Ti       0.00000000       0.00000000       0.00000000       0.00000000       0.00000000  -24766.53515625
Ti       0.00000000       0.00000000       0.81515152       0.00000000       0.00000000   24766.53515625
2
Properties=species:S:1:pos:R:3:forces:R:3 energy=1857.4277414163569 pbc="F F F"
Ti       0.00000000       0.00000000       0.00000000       0.00000000       0.00000000  -18218.96875000
Ti       0.00000000       0.00000000       0.87474747       0.00000000       0.00000000   18218.96875000
2
Properties=species:S:1:pos:R:3:forces:R:3 energy=1013.2825391819515 pbc="F F F"
Ti       0.00000000       0.00000000       0.00000000       0.00000000       0.00000000  -11206.18750000
Ti       0.00000000       0.00000000       0.93434343       0.00000000       0.00000000   11206.18750000
2
Properties=species:S:1:pos:R:3:forces:R:3 energy=484.149635683586 pbc="F F F"
Ti       0.00000000       0.00000000       0.00000000       0.00000000       0.00000000   -6871.94384766
Ti       0.00000000       0.00000000       0.99393939       0.00000000       0.00000000    6871.94384766
2
Properties=species:S:1:pos:R:3:forces:R:3 energy=202.01554219924637 pbc="F F F"
Ti       0.00000000       0.00000000       0.00000000       0.00000000       0.00000000   -2863.25219727
Ti       0.00000000       0.00000000       1.05353535       0.00000000       0.00000000    2863.25219727
2
Properties=species:S:1:pos:R:3:forces:R:3 energy=91.07886717805538 pbc="F F F"
Ti       0.00000000       0.00000000       0.00000000       0.00000000       0.00000000   -1179.72119141
Ti       0.00000000       0.00000000       1.11313131       0.00000000       0.00000000    1179.72119141
2
Properties=species:S:1:pos:R:3:forces:R:3 energy=46.85660516602339 pbc="F F F"
Ti       0.00000000       0.00000000       0.00000000       0.00000000       0.00000000    -468.53448486
Ti       0.00000000       0.00000000       1.17272727       0.00000000       0.00000000     468.53448486
2
Properties=species:S:1:pos:R:3:forces:R:3 energy=26.126809529205214 pbc="F F F"
Ti       0.00000000       0.00000000       0.00000000       0.00000000       0.00000000    -267.02902222
Ti       0.00000000       0.00000000       1.23232323       0.00000000       0.00000000     267.02902222
2
Properties=species:S:1:pos:R:3:forces:R:3 energy=14.431064368024613 pbc="F F F"
Ti       0.00000000       0.00000000       0.00000000       0.00000000       0.00000000    -132.45080566
Ti       0.00000000       0.00000000       1.29191919       0.00000000       0.00000000     132.45080566
2
Properties=species:S:1:pos:R:3:forces:R:3 energy=8.21976156593237 pbc="F F F"
Ti       0.00000000       0.00000000       0.00000000       0.00000000       0.00000000     -81.61877441
Ti       0.00000000       0.00000000       1.35151515       0.00000000       0.00000000      81.61877441
2
Properties=species:S:1:pos:R:3:forces:R:3 energy=4.233854682404651 pbc="F F F"
Ti       0.00000000       0.00000000       0.00000000       0.00000000       0.00000000     -55.80056381
Ti       0.00000000       0.00000000       1.41111111       0.00000000       0.00000000      55.80056381
2
Properties=species:S:1:pos:R:3:forces:R:3 energy=1.335539847628315 pbc="F F F"
Ti       0.00000000       0.00000000       0.00000000       0.00000000       0.00000000     -40.80946350
Ti       0.00000000       0.00000000       1.47070707       0.00000000       0.00000000      40.80946350
2
Properties=species:S:1:pos:R:3:forces:R:3 energy=-0.658120392572376 pbc="F F F"
Ti       0.00000000       0.00000000       0.00000000       0.00000000       0.00000000     -27.91790581
Ti       0.00000000       0.00000000       1.53030303       0.00000000       0.00000000      27.91790581
2
Properties=species:S:1:pos:R:3:forces:R:3 energy=-2.1316740353839525 pbc="F F F"
Ti       0.00000000       0.00000000       0.00000000       0.00000000       0.00000000     -22.46631050
Ti       0.00000000       0.00000000       1.58989899       0.00000000       0.00000000      22.46631050
2
Properties=species:S:1:pos:R:3:forces:R:3 energy=-3.3937070018390885 pbc="F F F"
Ti       0.00000000       0.00000000       0.00000000       0.00000000       0.00000000     -19.23165512
Ti       0.00000000       0.00000000       1.64949495       0.00000000       0.00000000      19.23165512
2
Properties=species:S:1:pos:R:3:forces:R:3 energy=-4.457850894036766 pbc="F F F"
Ti       0.00000000       0.00000000       0.00000000       0.00000000       0.00000000     -16.80400658
Ti       0.00000000       0.00000000       1.70909091       0.00000000       0.00000000      16.80400658
2
Properties=species:S:1:pos:R:3:forces:R:3 energy=-5.362552854456243 pbc="F F F"
Ti       0.00000000       0.00000000       0.00000000       0.00000000       0.00000000     -13.31668472
Ti       0.00000000       0.00000000       1.76868687       0.00000000       0.00000000      13.31668472
2
Properties=species:S:1:pos:R:3:forces:R:3 energy=-6.078401475312707 pbc="F F F"
Ti       0.00000000       0.00000000       0.00000000       0.00000000       0.00000000     -10.85776806
Ti       0.00000000       0.00000000       1.82828283       0.00000000       0.00000000      10.85776806
2
Properties=species:S:1:pos:R:3:forces:R:3 energy=-6.639980713317295 pbc="F F F"
Ti       0.00000000       0.00000000       0.00000000       0.00000000       0.00000000      -8.21205044
Ti       0.00000000       0.00000000       1.88787879       0.00000000       0.00000000       8.21205044
2
Properties=species:S:1:pos:R:3:forces:R:3 energy=-7.067291463393135 pbc="F F F"
Ti       0.00000000       0.00000000       0.00000000       0.00000000       0.00000000      -6.04800892
Ti       0.00000000       0.00000000       1.94747475       0.00000000       0.00000000       6.04800892
2
Properties=species:S:1:pos:R:3:forces:R:3 energy=-7.362723687070268 pbc="F F F"
Ti       0.00000000       0.00000000       0.00000000       0.00000000       0.00000000      -3.96552038
Ti       0.00000000       0.00000000       2.00707071       0.00000000       0.00000000       3.96552038
2
Properties=species:S:1:pos:R:3:forces:R:3 energy=-7.548128394454662 pbc="F F F"
Ti       0.00000000       0.00000000       0.00000000       0.00000000       0.00000000      -2.25924373
Ti       0.00000000       0.00000000       2.06666667       0.00000000       0.00000000       2.25924373
2
Properties=species:S:1:pos:R:3:forces:R:3 energy=-7.632808224705043 pbc="F F F"
Ti       0.00000000       0.00000000       0.00000000       0.00000000       0.00000000      -0.62594163
Ti       0.00000000       0.00000000       2.12626263       0.00000000       0.00000000       0.62594163
2
Properties=species:S:1:pos:R:3:forces:R:3 energy=-7.633653993800121 pbc="F F F"
Ti       0.00000000       0.00000000       0.00000000       0.00000000       0.00000000       0.49512902
Ti       0.00000000       0.00000000       2.18585859       0.00000000       0.00000000      -0.49512902
2
Properties=species:S:1:pos:R:3:forces:R:3 energy=-7.579723490520396 pbc="F F F"
Ti       0.00000000       0.00000000       0.00000000       0.00000000       0.00000000       1.27851164
Ti       0.00000000       0.00000000       2.24545455       0.00000000       0.00000000      -1.27851164
2
Properties=species:S:1:pos:R:3:forces:R:3 energy=-7.490183879348003 pbc="F F F"
Ti       0.00000000       0.00000000       0.00000000       0.00000000       0.00000000       1.64742422
Ti       0.00000000       0.00000000       2.30505051       0.00000000       0.00000000      -1.64742422
2
Properties=species:S:1:pos:R:3:forces:R:3 energy=-7.387846771424381 pbc="F F F"
Ti       0.00000000       0.00000000       0.00000000       0.00000000       0.00000000       1.77895200
Ti       0.00000000       0.00000000       2.36464646       0.00000000       0.00000000      -1.77895200
2
Properties=species:S:1:pos:R:3:forces:R:3 energy=-7.279164071347622 pbc="F F F"
Ti       0.00000000       0.00000000       0.00000000       0.00000000       0.00000000       1.85451961
Ti       0.00000000       0.00000000       2.42424242       0.00000000       0.00000000      -1.85451961
2
Properties=species:S:1:pos:R:3:forces:R:3 energy=-7.169986423134311 pbc="F F F"
Ti       0.00000000       0.00000000       0.00000000       0.00000000       0.00000000       1.77158535
Ti       0.00000000       0.00000000       2.48383838       0.00000000       0.00000000      -1.77158535
2
Properties=species:S:1:pos:R:3:forces:R:3 energy=-7.070773985284883 pbc="F F F"
Ti       0.00000000       0.00000000       0.00000000       0.00000000       0.00000000       1.55875099
Ti       0.00000000       0.00000000       2.54343434       0.00000000       0.00000000      -1.55875099
2
Properties=species:S:1:pos:R:3:forces:R:3 energy=-6.983252468753599 pbc="F F F"
Ti       0.00000000       0.00000000       0.00000000       0.00000000       0.00000000       1.38048351
Ti       0.00000000       0.00000000       2.60303030       0.00000000       0.00000000      -1.38048351
2
Properties=species:S:1:pos:R:3:forces:R:3 energy=-6.906705883113333 pbc="F F F"
Ti       0.00000000       0.00000000       0.00000000       0.00000000       0.00000000       1.18487763
Ti       0.00000000       0.00000000       2.66262626       0.00000000       0.00000000      -1.18487763
2
Properties=species:S:1:pos:R:3:forces:R:3 energy=-6.841781186142722 pbc="F F F"
Ti       0.00000000       0.00000000       0.00000000       0.00000000       0.00000000       1.00036478
Ti       0.00000000       0.00000000       2.72222222       0.00000000       0.00000000      -1.00036478
2
Properties=species:S:1:pos:R:3:forces:R:3 energy=-6.786683892488224 pbc="F F F"
Ti       0.00000000       0.00000000       0.00000000       0.00000000       0.00000000       0.85355520
Ti       0.00000000       0.00000000       2.78181818       0.00000000       0.00000000      -0.85355520
2
Properties=species:S:1:pos:R:3:forces:R:3 energy=-6.739689269827051 pbc="F F F"
Ti       0.00000000       0.00000000       0.00000000       0.00000000       0.00000000       0.72566444
Ti       0.00000000       0.00000000       2.84141414       0.00000000       0.00000000      -0.72566444
2
Properties=species:S:1:pos:R:3:forces:R:3 energy=-6.699716269837461 pbc="F F F"
Ti       0.00000000       0.00000000       0.00000000       0.00000000       0.00000000       0.62344599
Ti       0.00000000       0.00000000       2.90101010       0.00000000       0.00000000      -0.62344599
2
Properties=species:S:1:pos:R:3:forces:R:3 energy=-6.66385720511893 pbc="F F F"
Ti       0.00000000       0.00000000       0.00000000       0.00000000       0.00000000       0.59716034
Ti       0.00000000       0.00000000       2.96060606       0.00000000       0.00000000      -0.59716034
2
Properties=species:S:1:pos:R:3:forces:R:3 energy=-6.626481003402791 pbc="F F F"
Ti       0.00000000       0.00000000       0.00000000       0.00000000       0.00000000       0.67045170
Ti       0.00000000       0.00000000       3.02020202       0.00000000       0.00000000      -0.67045170
2
Properties=species:S:1:pos:R:3:forces:R:3 energy=-6.583302828484341 pbc="F F F"
Ti       0.00000000       0.00000000       0.00000000       0.00000000       0.00000000       0.77602124
Ti       0.00000000       0.00000000       3.07979798       0.00000000       0.00000000      -0.77602124
2
Properties=species:S:1:pos:R:3:forces:R:3 energy=-6.53485043274741 pbc="F F F"
Ti       0.00000000       0.00000000       0.00000000       0.00000000       0.00000000       0.84079468
Ti       0.00000000       0.00000000       3.13939394       0.00000000       0.00000000      -0.84079468
2
Properties=species:S:1:pos:R:3:forces:R:3 energy=-6.484036826418052 pbc="F F F"
Ti       0.00000000       0.00000000       0.00000000       0.00000000       0.00000000       0.85870641
Ti       0.00000000       0.00000000       3.19898990       0.00000000       0.00000000      -0.85870641
2
Properties=species:S:1:pos:R:3:forces:R:3 energy=-6.432924772841381 pbc="F F F"
Ti       0.00000000       0.00000000       0.00000000       0.00000000       0.00000000       0.85484099
Ti       0.00000000       0.00000000       3.25858586       0.00000000       0.00000000      -0.85484099
2
Properties=species:S:1:pos:R:3:forces:R:3 energy=-6.382238157261396 pbc="F F F"
Ti       0.00000000       0.00000000       0.00000000       0.00000000       0.00000000       0.84594864
Ti       0.00000000       0.00000000       3.31818182       0.00000000       0.00000000      -0.84594864
2
Properties=species:S:1:pos:R:3:forces:R:3 energy=-6.332106725244382 pbc="F F F"
Ti       0.00000000       0.00000000       0.00000000       0.00000000       0.00000000       0.83630425
Ti       0.00000000       0.00000000       3.37777778       0.00000000       0.00000000      -0.83630425
2
Properties=species:S:1:pos:R:3:forces:R:3 energy=-6.2825877945358615 pbc="F F F"
Ti       0.00000000       0.00000000       0.00000000       0.00000000       0.00000000       0.82521379
Ti       0.00000000       0.00000000       3.43737374       0.00000000       0.00000000      -0.82521379
2
Properties=species:S:1:pos:R:3:forces:R:3 energy=-6.233778724778729 pbc="F F F"
Ti       0.00000000       0.00000000       0.00000000       0.00000000       0.00000000       0.81269449
Ti       0.00000000       0.00000000       3.49696970       0.00000000       0.00000000      -0.81269449
2
Properties=species:S:1:pos:R:3:forces:R:3 energy=-6.185723368353179 pbc="F F F"
Ti       0.00000000       0.00000000       0.00000000       0.00000000       0.00000000       0.79995358
Ti       0.00000000       0.00000000       3.55656566       0.00000000       0.00000000      -0.79995358
2
Properties=species:S:1:pos:R:3:forces:R:3 energy=-6.138426953124857 pbc="F F F"
Ti       0.00000000       0.00000000       0.00000000       0.00000000       0.00000000       0.78717923
Ti       0.00000000       0.00000000       3.61616162       0.00000000       0.00000000      -0.78717923
2
Properties=species:S:1:pos:R:3:forces:R:3 energy=-6.091929540070394 pbc="F F F"
Ti       0.00000000       0.00000000       0.00000000       0.00000000       0.00000000       0.77290404
Ti       0.00000000       0.00000000       3.67575758       0.00000000       0.00000000      -0.77290404
2
Properties=species:S:1:pos:R:3:forces:R:3 energy=-6.046374389733214 pbc="F F F"
Ti       0.00000000       0.00000000       0.00000000       0.00000000       0.00000000       0.75511181
Ti       0.00000000       0.00000000       3.73535354       0.00000000       0.00000000      -0.75511181
2
Properties=species:S:1:pos:R:3:forces:R:3 energy=-6.002028369522829 pbc="F F F"
Ti       0.00000000       0.00000000       0.00000000       0.00000000       0.00000000       0.73219353
Ti       0.00000000       0.00000000       3.79494949       0.00000000       0.00000000      -0.73219353
2
Properties=species:S:1:pos:R:3:forces:R:3 energy=-5.95922484729746 pbc="F F F"
Ti       0.00000000       0.00000000       0.00000000       0.00000000       0.00000000       0.70316070
Ti       0.00000000       0.00000000       3.85454545       0.00000000       0.00000000      -0.70316070
2
Properties=species:S:1:pos:R:3:forces:R:3 energy=-5.918346382514486 pbc="F F F"
Ti       0.00000000       0.00000000       0.00000000       0.00000000       0.00000000       0.66760153
Ti       0.00000000       0.00000000       3.91414141       0.00000000       0.00000000      -0.66760153
2
Properties=species:S:1:pos:R:3:forces:R:3 energy=-5.8797773499532315 pbc="F F F"
Ti       0.00000000       0.00000000       0.00000000       0.00000000       0.00000000       0.62576258
Ti       0.00000000       0.00000000       3.97373737       0.00000000       0.00000000      -0.62576258
2
Properties=species:S:1:pos:R:3:forces:R:3 energy=-5.843864468272943 pbc="F F F"
Ti       0.00000000       0.00000000       0.00000000       0.00000000       0.00000000       0.57871699
Ti       0.00000000       0.00000000       4.03333333       0.00000000       0.00000000      -0.57871699
2
Properties=species:S:1:pos:R:3:forces:R:3 energy=-5.8108641451847785 pbc="F F F"
Ti       0.00000000       0.00000000       0.00000000       0.00000000       0.00000000       0.52835673
Ti       0.00000000       0.00000000       4.09292929       0.00000000       0.00000000      -0.52835673
2
Properties=species:S:1:pos:R:3:forces:R:3 energy=-5.780909250906189 pbc="F F F"
Ti       0.00000000       0.00000000       0.00000000       0.00000000       0.00000000       0.47701555
Ti       0.00000000       0.00000000       4.15252525       0.00000000       0.00000000      -0.47701555
2
Properties=species:S:1:pos:R:3:forces:R:3 energy=-5.753985250960434 pbc="F F F"
Ti       0.00000000       0.00000000       0.00000000       0.00000000       0.00000000       0.42683825
Ti       0.00000000       0.00000000       4.21212121       0.00000000       0.00000000      -0.42683825
2
Properties=species:S:1:pos:R:3:forces:R:3 energy=-5.729977725165652 pbc="F F F"
Ti       0.00000000       0.00000000       0.00000000       0.00000000       0.00000000       0.37927246
Ti       0.00000000       0.00000000       4.27171717       0.00000000       0.00000000      -0.37927246
2
Properties=species:S:1:pos:R:3:forces:R:3 energy=-5.708712478976944 pbc="F F F"
Ti       0.00000000       0.00000000       0.00000000       0.00000000       0.00000000       0.33495295
Ti       0.00000000       0.00000000       4.33131313       0.00000000       0.00000000      -0.33495295
2
Properties=species:S:1:pos:R:3:forces:R:3 energy=-5.689989609664709 pbc="F F F"
Ti       0.00000000       0.00000000       0.00000000       0.00000000       0.00000000       0.29390305
Ti       0.00000000       0.00000000       4.39090909       0.00000000       0.00000000      -0.29390305
2
Properties=species:S:1:pos:R:3:forces:R:3 energy=-5.673621539245697 pbc="F F F"
Ti       0.00000000       0.00000000       0.00000000       0.00000000       0.00000000       0.25588530
Ti       0.00000000       0.00000000       4.45050505       0.00000000       0.00000000      -0.25588530
2
Properties=species:S:1:pos:R:3:forces:R:3 energy=-5.659437637134777 pbc="F F F"
Ti       0.00000000       0.00000000       0.00000000       0.00000000       0.00000000       0.22067687
Ti       0.00000000       0.00000000       4.51010101       0.00000000       0.00000000      -0.22067687
2
Properties=species:S:1:pos:R:3:forces:R:3 energy=-5.647267633878544 pbc="F F F"
Ti       0.00000000       0.00000000       0.00000000       0.00000000       0.00000000       0.18822078
Ti       0.00000000       0.00000000       4.56969697       0.00000000       0.00000000      -0.18822078
2
Properties=species:S:1:pos:R:3:forces:R:3 energy=-5.63694350316137 pbc="F F F"
Ti       0.00000000       0.00000000       0.00000000       0.00000000       0.00000000       0.15864290
Ti       0.00000000       0.00000000       4.62929293       0.00000000       0.00000000      -0.15864290
2
Properties=species:S:1:pos:R:3:forces:R:3 energy=-5.628294281616949 pbc="F F F"
Ti       0.00000000       0.00000000       0.00000000       0.00000000       0.00000000       0.13217424
Ti       0.00000000       0.00000000       4.68888889       0.00000000       0.00000000      -0.13217424
2
Properties=species:S:1:pos:R:3:forces:R:3 energy=-5.621123041260525 pbc="F F F"
Ti       0.00000000       0.00000000       0.00000000       0.00000000       0.00000000       0.10904923
Ti       0.00000000       0.00000000       4.74848485       0.00000000       0.00000000      -0.10904923
2
Properties=species:S:1:pos:R:3:forces:R:3 energy=-5.615228532558533 pbc="F F F"
Ti       0.00000000       0.00000000       0.00000000       0.00000000       0.00000000       0.08942693
Ti       0.00000000       0.00000000       4.80808081       0.00000000       0.00000000      -0.08942693
2
Properties=species:S:1:pos:R:3:forces:R:3 energy=-5.610395571657703 pbc="F F F"
Ti       0.00000000       0.00000000       0.00000000       0.00000000       0.00000000       0.07334822
Ti       0.00000000       0.00000000       4.86767677       0.00000000       0.00000000      -0.07334822
2
Properties=species:S:1:pos:R:3:forces:R:3 energy=-5.606414782441712 pbc="F F F"
Ti       0.00000000       0.00000000       0.00000000       0.00000000       0.00000000       0.06073986
Ti       0.00000000       0.00000000       4.92727273       0.00000000       0.00000000      -0.06073986
2
Properties=species:S:1:pos:R:3:forces:R:3 energy=-5.603090130891048 pbc="F F F"
Ti       0.00000000       0.00000000       0.00000000       0.00000000       0.00000000       0.05142311
Ti       0.00000000       0.00000000       4.98686869       0.00000000       0.00000000      -0.05142311
2
Properties=species:S:1:pos:R:3:forces:R:3 energy=-5.600227442977353 pbc="F F F"
Ti       0.00000000       0.00000000       0.00000000       0.00000000       0.00000000       0.04512012
Ti       0.00000000       0.00000000       5.04646465       0.00000000       0.00000000      -0.04512012
2
Properties=species:S:1:pos:R:3:forces:R:3 energy=-5.597658012102486 pbc="F F F"
Ti       0.00000000       0.00000000       0.00000000       0.00000000       0.00000000       0.04144234
Ti       0.00000000       0.00000000       5.10606061       0.00000000       0.00000000      -0.04144234
2
Properties=species:S:1:pos:R:3:forces:R:3 energy=-5.595243538532509 pbc="F F F"
Ti       0.00000000       0.00000000       0.00000000       0.00000000       0.00000000       0.03988323
Ti       0.00000000       0.00000000       5.16565657       0.00000000       0.00000000      -0.03988323
2
Properties=species:S:1:pos:R:3:forces:R:3 energy=-5.5928760216917315 pbc="F F F"
Ti       0.00000000       0.00000000       0.00000000       0.00000000       0.00000000       0.03983093
Ti       0.00000000       0.00000000       5.22525253       0.00000000       0.00000000      -0.03983093
2
Properties=species:S:1:pos:R:3:forces:R:3 energy=-5.590479645336584 pbc="F F F"
Ti       0.00000000       0.00000000       0.00000000       0.00000000       0.00000000       0.04061420
Ti       0.00000000       0.00000000       5.28484848       0.00000000       0.00000000      -0.04061420
2
Properties=species:S:1:pos:R:3:forces:R:3 energy=-5.588030031607815 pbc="F F F"
Ti       0.00000000       0.00000000       0.00000000       0.00000000       0.00000000       0.04158016
Ti       0.00000000       0.00000000       5.34444444       0.00000000       0.00000000      -0.04158016
2
Properties=species:S:1:pos:R:3:forces:R:3 energy=-5.585533209510372 pbc="F F F"
Ti       0.00000000       0.00000000       0.00000000       0.00000000       0.00000000       0.04218069
Ti       0.00000000       0.00000000       5.40404040       0.00000000       0.00000000      -0.04218069
2
Properties=species:S:1:pos:R:3:forces:R:3 energy=-5.5830181439099755 pbc="F F F"
Ti       0.00000000       0.00000000       0.00000000       0.00000000       0.00000000       0.04204264
Ti       0.00000000       0.00000000       5.46363636       0.00000000       0.00000000      -0.04204264
2
Properties=species:S:1:pos:R:3:forces:R:3 energy=-5.580540597747724 pbc="F F F"
Ti       0.00000000       0.00000000       0.00000000       0.00000000       0.00000000       0.04100343
Ti       0.00000000       0.00000000       5.52323232       0.00000000       0.00000000      -0.04100343
2
Properties=species:S:1:pos:R:3:forces:R:3 energy=-5.578147975971088 pbc="F F F"
Ti       0.00000000       0.00000000       0.00000000       0.00000000       0.00000000       0.03910670
Ti       0.00000000       0.00000000       5.58282828       0.00000000       0.00000000      -0.03910670
2
Properties=species:S:1:pos:R:3:forces:R:3 energy=-5.575891742306961 pbc="F F F"
Ti       0.00000000       0.00000000       0.00000000       0.00000000       0.00000000       0.03656531
Ti       0.00000000       0.00000000       5.64242424       0.00000000       0.00000000      -0.03656531
2
Properties=species:S:1:pos:R:3:forces:R:3 energy=-5.57379709492068 pbc="F F F"
Ti       0.00000000       0.00000000       0.00000000       0.00000000       0.00000000       0.03369094
Ti       0.00000000       0.00000000       5.70202020       0.00000000       0.00000000      -0.03369094
2
Properties=species:S:1:pos:R:3:forces:R:3 energy=-5.571876371709439 pbc="F F F"
Ti       0.00000000       0.00000000       0.00000000       0.00000000       0.00000000       0.03082314
Ti       0.00000000       0.00000000       5.76161616       0.00000000       0.00000000      -0.03082314
2
Properties=species:S:1:pos:R:3:forces:R:3 energy=-5.570116674710925 pbc="F F F"
Ti       0.00000000       0.00000000       0.00000000       0.00000000       0.00000000       0.02824357
Ti       0.00000000       0.00000000       5.82121212       0.00000000       0.00000000      -0.02824357
2
Properties=species:S:1:pos:R:3:forces:R:3 energy=-5.568499124155509 pbc="F F F"
Ti       0.00000000       0.00000000       0.00000000       0.00000000       0.00000000       0.02611653
Ti       0.00000000       0.00000000       5.88080808       0.00000000       0.00000000      -0.02611653
2
Properties=species:S:1:pos:R:3:forces:R:3 energy=-5.566996951117617 pbc="F F F"
Ti       0.00000000       0.00000000       0.00000000       0.00000000       0.00000000       0.02444608
Ti       0.00000000       0.00000000       5.94040404       0.00000000       0.00000000      -0.02444608
2
Properties=species:S:1:pos:R:3:forces:R:3 energy=-5.565579397744191 pbc="F F F"
Ti       0.00000000       0.00000000       0.00000000       0.00000000       0.00000000       0.02308579
Ti       0.00000000       0.00000000       6.00000000       0.00000000       0.00000000      -0.02308579
