2
Properties=species:S:1:pos:R:3:forces:R:3 energy=-32426000.0467467 pbc="F F F"
Ti       0.00000000       0.00000000       0.00000000       0.00000000       0.00000000 305834816.00000000
Ti       0.00000000       0.00000000       0.18000000       0.00000000       0.00000000 -305834816.00000000
2
Properties=species:S:1:pos:R:3:forces:R:3 energy=-16678518.0467467 pbc="F F F"
Ti       0.00000000       0.00000000       0.00000000       0.00000000       0.00000000 221303936.00000000
Ti       0.00000000       0.00000000       0.23878788       0.00000000       0.00000000 -221303936.00000000
2
Properties=species:S:1:pos:R:3:forces:R:3 energy=-6763794.546746696 pbc="F F F"
Ti       0.00000000       0.00000000       0.00000000       0.00000000       0.00000000 118014696.00000000
Ti       0.00000000       0.00000000       0.29757576       0.00000000       0.00000000 -118014696.00000000
2
Properties=species:S:1:pos:R:3:forces:R:3 energy=-2190693.0467466963 pbc="F F F"
Ti       0.00000000       0.00000000       0.00000000       0.00000000       0.00000000 44069636.00000000
Ti       0.00000000       0.00000000       0.35636364       0.00000000       0.00000000 -44069636.00000000
2
Properties=species:S:1:pos:R:3:forces:R:3 energy=-682649.9217466898 pbc="F F F"
Ti       0.00000000       0.00000000       0.00000000       0.00000000       0.00000000 13244385.00000000
Ti       0.00000000       0.00000000       0.41515152       0.00000000       0.00000000 -13244385.00000000
2
Properties=species:S:1:pos:R:3:forces:R:3 energy=-244658.28112168345 pbc="F F F"
Ti       0.00000000       0.00000000       0.00000000       0.00000000       0.00000000 3559800.75000000
Ti       0.00000000       0.00000000       0.47393939       0.00000000       0.00000000 -3559800.75000000
2
Properties=species:S:1:pos:R:3:forces:R:3 energy=-108698.87487165812 pbc="F F F"
Ti       0.00000000       0.00000000       0.00000000       0.00000000       0.00000000 3930512.25000000
Ti       0.00000000       0.00000000       0.53272727       0.00000000       0.00000000 -3930512.25000000
2
Properties=species:S:1:pos:R:3:forces:R:3 energy=3631.5313783767347 pbc="F F F"
Ti       0.00000000       0.00000000       0.00000000       0.00000000       0.00000000  475044.25000000
Ti       0.00000000       0.00000000       0.59151515       0.00000000       0.00000000 -475044.25000000
2
Properties=species:S:1:pos:R:3:forces:R:3 energy=8706.833136246256 pbc="F F F"
Ti       0.00000000       0.00000000       0.00000000       0.00000000       0.00000000  -40790.94921875
Ti       0.00000000       0.00000000       0.65030303       0.00000000       0.00000000   40790.94921875
2
Properties=species:S:1:pos:R:3:forces:R:3 energy=6150.721319938208 pbc="F F F"
Ti       0.00000000       0.00000000       0.00000000       0.00000000       0.00000000  -31397.52734375
Ti       0.00000000       0.00000000       0.70909091       0.00000000       0.00000000   31397.52734375
2
Properties=species:S:1:pos:R:3:forces:R:3 energy=4528.5797185119245 pbc="F F F"
Ti       0.00000000       0.00000000       0.00000000       0.00000000       0.00000000  -32070.25390625
Ti       0.00000000       0.00000000       0.76787879       0.00000000       0.00000000   32070.25390625
2
Properties=species:S:1:pos:R:3:forces:R:3 energy=2858.3433905991683 pbc="F F F"
Ti       0.00000000       0.00000000       0.00000000       0.00000000       0.00000000  -23447.27929688
Ti       0.00000000       0.00000000       0.82666667       0.00000000       0.00000000   23447.27929688
2
Properties=species:S:1:pos:R:3:forces:R:3 energy=1672.2192453859632 pbc="F F F"
Ti       0.00000000       0.00000000       0.00000000       0.00000000       0.00000000  -16342.91992188
Ti       0.00000000       0.00000000       0.88545455       0.00000000       0.00000000   16342.91992188
2
Properties=species:S:1:pos:R:3:forces:R:3 energy=907.3940504916158 pbc="F F F"
Ti       0.00000000       0.00000000       0.00000000       0.00000000       0.00000000  -10192.04687500
Ti       0.00000000       0.00000000       0.94424242       0.00000000       0.00000000   10192.04687500
2
Properties=species:S:1:pos:R:3:forces:R:3 energy=424.65668534550315 pbc="F F F"
Ti       0.00000000       0.00000000       0.00000000       0.00000000       0.00000000   -6201.71582031
Ti       0.00000000       0.00000000       1.00303030       0.00000000       0.00000000    6201.71582031
2
Properties=species:S:1:pos:R:3:forces:R:3 energy=179.85529452005707 pbc="F F F"
Ti       0.00000000       0.00000000       0.00000000       0.00000000       0.00000000   -2496.09960938
Ti       0.00000000       0.00000000       1.06181818       0.00000000       0.00000000    2496.09960938
2
Properties=species:S:1:pos:R:3:forces:R:3 energy=82.7960761892477 pbc="F F F"
Ti       0.00000000       0.00000000       0.00000000       0.00000000       0.00000000   -1037.45593262
Ti       0.00000000       0.00000000       1.12060606       0.00000000       0.00000000    1037.45593262
2
Properties=species:S:1:pos:R:3:forces:R:3 energy=43.846290402015185 pbc="F F F"
Ti       0.00000000       0.00000000       0.00000000       0.00000000       0.00000000    -434.90951538
Ti       0.00000000       0.00000000       1.17939394       0.00000000       0.00000000     434.90951538
2
Properties=species:S:1:pos:R:3:forces:R:3 energy=24.60005725368636 pbc="F F F"
Ti       0.00000000       0.00000000       0.00000000       0.00000000       0.00000000    -254.07681274
Ti       0.00000000       0.00000000       1.23818182       0.00000000       0.00000000     254.07681274
2
Properties=species:S:1:pos:R:3:forces:R:3 energy=13.778240181581051 pbc="F F F"
Ti       0.00000000       0.00000000       0.00000000       0.00000000       0.00000000    -126.21965027
Ti       0.00000000       0.00000000       1.29696970       0.00000000       0.00000000     126.21965027
2
Properties=species:S:1:pos:R:3:forces:R:3 energy=7.878922404861414 pbc="F F F"
Ti       0.00000000       0.00000000       0.00000000       0.00000000       0.00000000     -79.08339691
Ti       0.00000000       0.00000000       1.35575758       0.00000000       0.00000000      79.08339691
2
Properties=species:S:1:pos:R:3:forces:R:3 energy=4.043707510585501 pbc="F F F"
Ti       0.00000000       0.00000000       0.00000000       0.00000000       0.00000000     -54.93033218
Ti       0.00000000       0.00000000       1.41454545       0.00000000       0.00000000      54.93033218
2
Properties=species:S:1:pos:R:3:forces:R:3 energy=1.2293770444735217 pbc="F F F"
Ti       0.00000000       0.00000000       0.00000000       0.00000000       0.00000000     -40.03350067
Ti       0.00000000       0.00000000       1.47333333       0.00000000       0.00000000      40.03350067
2
Properties=species:S:1:pos:R:3:forces:R:3 energy=-0.7086592255623242 pbc="F F F"
Ti       0.00000000       0.00000000       0.00000000       0.00000000       0.00000000     -27.67447662
Ti       0.00000000       0.00000000       1.53212121       0.00000000       0.00000000      27.67447662
2
Properties=species:S:1:pos:R:3:forces:R:3 energy=-2.1543541944316624 pbc="F F F"
Ti       0.00000000       0.00000000       0.00000000       0.00000000       0.00000000     -22.43099403
Ti       0.00000000       0.00000000       1.59090909       0.00000000       0.00000000      22.43099403
2
Properties=species:S:1:pos:R:3:forces:R:3 energy=-3.3975903668233167 pbc="F F F"
Ti       0.00000000       0.00000000       0.00000000       0.00000000       0.00000000     -19.21780586
Ti       0.00000000       0.00000000       1.64969697       0.00000000       0.00000000      19.21780586
2
Properties=species:S:1:pos:R:3:forces:R:3 energy=-4.4476581306489695 pbc="F F F"
Ti       0.00000000       0.00000000       0.00000000       0.00000000       0.00000000     -16.82764626
Ti       0.00000000       0.00000000       1.70848485       0.00000000       0.00000000      16.82764626
2
Properties=species:S:1:pos:R:3:forces:R:3 energy=-5.3436580220075 pbc="F F F"
Ti       0.00000000       0.00000000       0.00000000       0.00000000       0.00000000     -13.40208340
Ti       0.00000000       0.00000000       1.76727273       0.00000000       0.00000000      13.40208340
2
Properties=species:S:1:pos:R:3:forces:R:3 energy=-6.054151964317961 pbc="F F F"
Ti       0.00000000       0.00000000       0.00000000       0.00000000       0.00000000     -10.96480370
Ti       0.00000000       0.00000000       1.82606061       0.00000000       0.00000000      10.96480370
2
Properties=species:S:1:pos:R:3:forces:R:3 energy=-6.614943796790701 pbc="F F F"
Ti       0.00000000       0.00000000       0.00000000       0.00000000       0.00000000      -8.31318378
Ti       0.00000000       0.00000000       1.88484848       0.00000000       0.00000000       8.31318378
2
Properties=species:S:1:pos:R:3:forces:R:3 energy=-7.043790253955593 pbc="F F F"
Ti       0.00000000       0.00000000       0.00000000       0.00000000       0.00000000      -6.19787169
Ti       0.00000000       0.00000000       1.94363636       0.00000000       0.00000000       6.19787169
2
Properties=species:S:1:pos:R:3:forces:R:3 energy=-7.343973965013233 pbc="F F F"
Ti       0.00000000       0.00000000       0.00000000       0.00000000       0.00000000      -4.10550165
Ti       0.00000000       0.00000000       2.00242424       0.00000000       0.00000000       4.10550165
2
Properties=species:S:1:pos:R:3:forces:R:3 energy=-7.535377166638402 pbc="F F F"
Ti       0.00000000       0.00000000       0.00000000       0.00000000       0.00000000      -2.41633916
Ti       0.00000000       0.00000000       2.06121212       0.00000000       0.00000000       2.41633916
2
Properties=species:S:1:pos:R:3:forces:R:3 energy=-7.628405718608048 pbc="F F F"
Ti       0.00000000       0.00000000       0.00000000       0.00000000       0.00000000      -0.78127962
Ti       0.00000000       0.00000000       2.12000000       0.00000000       0.00000000       0.78127962
2
Properties=species:S:1:pos:R:3:forces:R:3 energy=-7.6367862343779125 pbc="F F F"
Ti       0.00000000       0.00000000       0.00000000       0.00000000       0.00000000       0.39014813
Ti       0.00000000       0.00000000       2.17878788       0.00000000       0.00000000      -0.39014813
2
Properties=species:S:1:pos:R:3:forces:R:3 energy=-7.589459844175174 pbc="F F F"
Ti       0.00000000       0.00000000       0.00000000       0.00000000       0.00000000       1.19131494
Ti       0.00000000       0.00000000       2.23757576       0.00000000       0.00000000      -1.19131494
2
Properties=species:S:1:pos:R:3:forces:R:3 energy=-7.50438232150446 pbc="F F F"
Ti       0.00000000       0.00000000       0.00000000       0.00000000       0.00000000       1.61979055
Ti       0.00000000       0.00000000       2.29636364       0.00000000       0.00000000      -1.61979055
2
Properties=species:S:1:pos:R:3:forces:R:3 energy=-7.404655353529901 pbc="F F F"
Ti       0.00000000       0.00000000       0.00000000       0.00000000       0.00000000       1.76065838
Ti       0.00000000       0.00000000       2.35515152       0.00000000       0.00000000      -1.76065838
2
Properties=species:S:1:pos:R:3:forces:R:3 energy=-7.298242153503136 pbc="F F F"
Ti       0.00000000       0.00000000       0.00000000       0.00000000       0.00000000       1.84820545
Ti       0.00000000       0.00000000       2.41393939       0.00000000       0.00000000      -1.84820545
2
Properties=species:S:1:pos:R:3:forces:R:3 energy=-7.189858469260145 pbc="F F F"
Ti       0.00000000       0.00000000       0.00000000       0.00000000       0.00000000       1.80412638
Ti       0.00000000       0.00000000       2.47272727       0.00000000       0.00000000      -1.80412638
2
Properties=species:S:1:pos:R:3:forces:R:3 energy=-7.08959146448732 pbc="F F F"
Ti       0.00000000       0.00000000       0.00000000       0.00000000       0.00000000       1.59909081
Ti       0.00000000       0.00000000       2.53151515       0.00000000       0.00000000      -1.59909081
2
Properties=species:S:1:pos:R:3:forces:R:3 energy=-7.001062867021539 pbc="F F F"
Ti       0.00000000       0.00000000       0.00000000       0.00000000       0.00000000       1.41850436
Ti       0.00000000       0.00000000       2.59030303       0.00000000       0.00000000      -1.41850436
2
Properties=species:S:1:pos:R:3:forces:R:3 energy=-6.923050214010756 pbc="F F F"
Ti       0.00000000       0.00000000       0.00000000       0.00000000       0.00000000       1.23065698
Ti       0.00000000       0.00000000       2.64909091       0.00000000       0.00000000      -1.23065698
2
Properties=species:S:1:pos:R:3:forces:R:3 energy=-6.856416665483957 pbc="F F F"
Ti       0.00000000       0.00000000       0.00000000       0.00000000       0.00000000       1.04104888
Ti       0.00000000       0.00000000       2.70787879       0.00000000       0.00000000      -1.04104888
2
Properties=species:S:1:pos:R:3:forces:R:3 energy=-6.799876597443679 pbc="F F F"
Ti       0.00000000       0.00000000       0.00000000       0.00000000       0.00000000       0.88833553
Ti       0.00000000       0.00000000       2.76666667       0.00000000       0.00000000      -0.88833553
2
Properties=species:S:1:pos:R:3:forces:R:3 energy=-6.751529832938959 pbc="F F F"
Ti       0.00000000       0.00000000       0.00000000       0.00000000       0.00000000       0.75858903
Ti       0.00000000       0.00000000       2.82545455       0.00000000       0.00000000      -0.75858903
2
Properties=species:S:1:pos:R:3:forces:R:3 energy=-6.710359477131346 pbc="F F F"
Ti       0.00000000       0.00000000       0.00000000       0.00000000       0.00000000       0.64716369
Ti       0.00000000       0.00000000       2.88424242       0.00000000       0.00000000      -0.64716369
2
Properties=species:S:1:pos:R:3:forces:R:3 energy=-6.674309039628467 pbc="F F F"
Ti       0.00000000       0.00000000       0.00000000       0.00000000       0.00000000       0.59390974
Ti       0.00000000       0.00000000       2.94303030       0.00000000       0.00000000      -0.59390974
2
Properties=species:S:1:pos:R:3:forces:R:3 energy=-6.638517633321094 pbc="F F F"
Ti       0.00000000       0.00000000       0.00000000       0.00000000       0.00000000       0.63988948
Ti       0.00000000       0.00000000       3.00181818       0.00000000       0.00000000      -0.63988948
2
Properties=species:S:1:pos:R:3:forces:R:3 energy=-6.597900101963215 pbc="F F F"
Ti       0.00000000       0.00000000       0.00000000       0.00000000       0.00000000       0.74422401
Ti       0.00000000       0.00000000       3.06060606       0.00000000       0.00000000      -0.74422401
2
Properties=species:S:1:pos:R:3:forces:R:3 energy=-6.551521630507806 pbc="F F F"
Ti       0.00000000       0.00000000       0.00000000       0.00000000       0.00000000       0.82521319
Ti       0.00000000       0.00000000       3.11939394       0.00000000       0.00000000      -0.82521319
2
Properties=species:S:1:pos:R:3:forces:R:3 energy=-6.501884863250527 pbc="F F F"
Ti       0.00000000       0.00000000       0.00000000       0.00000000       0.00000000       0.85623360
Ti       0.00000000       0.00000000       3.17818182       0.00000000       0.00000000      -0.85623360
2
Properties=species:S:1:pos:R:3:forces:R:3 energy=-6.451431215280412 pbc="F F F"
Ti       0.00000000       0.00000000       0.00000000       0.00000000       0.00000000       0.85737401
Ti       0.00000000       0.00000000       3.23696970       0.00000000       0.00000000      -0.85737401
2
Properties=species:S:1:pos:R:3:forces:R:3 energy=-6.401245613182512 pbc="F F F"
Ti       0.00000000       0.00000000       0.00000000       0.00000000       0.00000000       0.84942186
Ti       0.00000000       0.00000000       3.29575758       0.00000000       0.00000000      -0.84942186
2
Properties=species:S:1:pos:R:3:forces:R:3 energy=-6.351579205369036 pbc="F F F"
Ti       0.00000000       0.00000000       0.00000000       0.00000000       0.00000000       0.84017581
Ti       0.00000000       0.00000000       3.35454545       0.00000000       0.00000000      -0.84017581
2
Properties=species:S:1:pos:R:3:forces:R:3 energy=-6.302482338719929 pbc="F F F"
Ti       0.00000000       0.00000000       0.00000000       0.00000000       0.00000000       0.82990676
Ti       0.00000000       0.00000000       3.41333333       0.00000000       0.00000000      -0.82990676
2
Properties=species:S:1:pos:R:3:forces:R:3 energy=-6.254038578712631 pbc="F F F"
Ti       0.00000000       0.00000000       0.00000000       0.00000000       0.00000000       0.81801057
Ti       0.00000000       0.00000000       3.47212121       0.00000000       0.00000000      -0.81801057
2
Properties=species:S:1:pos:R:3:forces:R:3 energy=-6.206318324585663 pbc="F F F"
Ti       0.00000000       0.00000000       0.00000000       0.00000000       0.00000000       0.80541044
Ti       0.00000000       0.00000000       3.53090909       0.00000000       0.00000000      -0.80541044
2
Properties=species:S:1:pos:R:3:forces:R:3 energy=-6.159337772803442 pbc="F F F"
Ti       0.00000000       0.00000000       0.00000000       0.00000000       0.00000000       0.79292148
Ti       0.00000000       0.00000000       3.58969697       0.00000000       0.00000000      -0.79292148
2
Properties=species:S:1:pos:R:3:forces:R:3 energy=-6.1130991668234484 pbc="F F F"
Ti       0.00000000       0.00000000       0.00000000       0.00000000       0.00000000       0.77975422
Ti       0.00000000       0.00000000       3.64848485       0.00000000       0.00000000      -0.77975422
2
Properties=species:S:1:pos:R:3:forces:R:3 energy=-6.067705649511374 pbc="F F F"
Ti       0.00000000       0.00000000       0.00000000       0.00000000       0.00000000       0.76404989
Ti       0.00000000       0.00000000       3.70727273       0.00000000       0.00000000      -0.76404989
2
Properties=species:S:1:pos:R:3:forces:R:3 energy=-6.023353174252524 pbc="F F F"
Ti       0.00000000       0.00000000       0.00000000       0.00000000       0.00000000       0.74401915
Ti       0.00000000       0.00000000       3.76606061       0.00000000       0.00000000      -0.74401915
2
Properties=species:S:1:pos:R:3:forces:R:3 energy=-5.980336695835403 pbc="F F F"
Ti       0.00000000       0.00000000       0.00000000       0.00000000       0.00000000       0.71843207
Ti       0.00000000       0.00000000       3.82484848       0.00000000       0.00000000      -0.71843207
2
Properties=species:S:1:pos:R:3:forces:R:3 energy=-5.939005613855894 pbc="F F F"
Ti       0.00000000       0.00000000       0.00000000       0.00000000       0.00000000       0.68662018
Ti       0.00000000       0.00000000       3.88363636       0.00000000       0.00000000      -0.68662018
2
Properties=species:S:1:pos:R:3:forces:R:3 energy=-5.899732288793538 pbc="F F F"
Ti       0.00000000       0.00000000       0.00000000       0.00000000       0.00000000       0.64848405
Ti       0.00000000       0.00000000       3.94242424       0.00000000       0.00000000      -0.64848405
2
Properties=species:S:1:pos:R:3:forces:R:3 energy=-5.8628730300635725 pbc="F F F"
Ti       0.00000000       0.00000000       0.00000000       0.00000000       0.00000000       0.60462362
Ti       0.00000000       0.00000000       4.00121212       0.00000000       0.00000000      -0.60462362
2
Properties=species:S:1:pos:R:3:forces:R:3 energy=-5.828727379460971 pbc="F F F"
Ti       0.00000000       0.00000000       0.00000000       0.00000000       0.00000000       0.55645680
Ti       0.00000000       0.00000000       4.06000000       0.00000000       0.00000000      -0.55645680
2
Properties=species:S:1:pos:R:3:forces:R:3 energy=-5.797491070672363 pbc="F F F"
Ti       0.00000000       0.00000000       0.00000000       0.00000000       0.00000000       0.50606406
Ti       0.00000000       0.00000000       4.11878788       0.00000000       0.00000000      -0.50606406
2
Properties=species:S:1:pos:R:3:forces:R:3 energy=-5.769226839175243 pbc="F F F"
Ti       0.00000000       0.00000000       0.00000000       0.00000000       0.00000000       0.45568001
Ti       0.00000000       0.00000000       4.17757576       0.00000000       0.00000000      -0.45568001
2
Properties=species:S:1:pos:R:3:forces:R:3 energy=-5.743876306816894 pbc="F F F"
Ti       0.00000000       0.00000000       0.00000000       0.00000000       0.00000000       0.40712106
Ti       0.00000000       0.00000000       4.23636364       0.00000000       0.00000000      -0.40712106
2
Properties=species:S:1:pos:R:3:forces:R:3 energy=-5.721300561994153 pbc="F F F"
Ti       0.00000000       0.00000000       0.00000000       0.00000000       0.00000000       0.36144561
Ti       0.00000000       0.00000000       4.29515152       0.00000000       0.00000000      -0.36144561
2
Properties=species:S:1:pos:R:3:forces:R:3 energy=-5.701316827093274 pbc="F F F"
Ti       0.00000000       0.00000000       0.00000000       0.00000000       0.00000000       0.31899327
Ti       0.00000000       0.00000000       4.35393939       0.00000000       0.00000000      -0.31899327
2
Properties=species:S:1:pos:R:3:forces:R:3 energy=-5.683735544082317 pbc="F F F"
Ti       0.00000000       0.00000000       0.00000000       0.00000000       0.00000000       0.27964783
Ti       0.00000000       0.00000000       4.41272727       0.00000000       0.00000000      -0.27964783
2
Properties=species:S:1:pos:R:3:forces:R:3 energy=-5.668380490370811 pbc="F F F"
Ti       0.00000000       0.00000000       0.00000000       0.00000000       0.00000000       0.24315909
Ti       0.00000000       0.00000000       4.47151515       0.00000000       0.00000000      -0.24315909
2
Properties=species:S:1:pos:R:3:forces:R:3 energy=-5.655093943318951 pbc="F F F"
Ti       0.00000000       0.00000000       0.00000000       0.00000000       0.00000000       0.20936307
Ti       0.00000000       0.00000000       4.53030303       0.00000000       0.00000000      -0.20936307
2
Properties=species:S:1:pos:R:3:forces:R:3 energy=-5.643709087038873 pbc="F F F"
Ti       0.00000000       0.00000000       0.00000000       0.00000000       0.00000000       0.17826979
Ti       0.00000000       0.00000000       4.58909091       0.00000000       0.00000000      -0.17826979
2
Properties=species:S:1:pos:R:3:forces:R:3 energy=-5.634073626169363 pbc="F F F"
Ti       0.00000000       0.00000000       0.00000000       0.00000000       0.00000000       0.15004338
Ti       0.00000000       0.00000000       4.64787879       0.00000000       0.00000000      -0.15004338
2
Properties=species:S:1:pos:R:3:forces:R:3 energy=-5.626009300730759 pbc="F F F"
Ti       0.00000000       0.00000000       0.00000000       0.00000000       0.00000000       0.12491673
Ti       0.00000000       0.00000000       4.70666667       0.00000000       0.00000000      -0.12491673
2
Properties=species:S:1:pos:R:3:forces:R:3 energy=-5.6193242585484855 pbc="F F F"
Ti       0.00000000       0.00000000       0.00000000       0.00000000       0.00000000       0.10310118
Ti       0.00000000       0.00000000       4.76545455       0.00000000       0.00000000      -0.10310118
2
Properties=species:S:1:pos:R:3:forces:R:3 energy=-5.613821422909994 pbc="F F F"
Ti       0.00000000       0.00000000       0.00000000       0.00000000       0.00000000       0.08471672
Ti       0.00000000       0.00000000       4.82424242       0.00000000       0.00000000      -0.08471672
2
Properties=species:S:1:pos:R:3:forces:R:3 energy=-5.609293508781279 pbc="F F F"
Ti       0.00000000       0.00000000       0.00000000       0.00000000       0.00000000       0.06977420
Ti       0.00000000       0.00000000       4.88303030       0.00000000       0.00000000      -0.06977420
2
Properties=species:S:1:pos:R:3:forces:R:3 energy=-5.605554297654344 pbc="F F F"
Ti       0.00000000       0.00000000       0.00000000       0.00000000       0.00000000       0.05817107
Ti       0.00000000       0.00000000       4.94181818       0.00000000       0.00000000      -0.05817107
2
Properties=species:S:1:pos:R:3:forces:R:3 energy=-5.6023937198196645 pbc="F F F"
Ti       0.00000000       0.00000000       0.00000000       0.00000000       0.00000000       0.04971529
Ti       0.00000000       0.00000000       5.00060606       0.00000000       0.00000000      -0.04971529
2
Properties=species:S:1:pos:R:3:forces:R:3 energy=-5.599648495957689 pbc="F F F"
Ti       0.00000000       0.00000000       0.00000000       0.00000000       0.00000000       0.04411434
Ti       0.00000000       0.00000000       5.05939394       0.00000000       0.00000000      -0.04411434
2
Properties=species:S:1:pos:R:3:forces:R:3 energy=-5.597159877693641 pbc="F F F"
Ti       0.00000000       0.00000000       0.00000000       0.00000000       0.00000000       0.04097198
Ti       0.00000000       0.00000000       5.11818182       0.00000000       0.00000000      -0.04097198
2
Properties=species:S:1:pos:R:3:forces:R:3 energy=-5.594792816118503 pbc="F F F"
Ti       0.00000000       0.00000000       0.00000000       0.00000000       0.00000000       0.03977742
Ti       0.00000000       0.00000000       5.17696970       0.00000000       0.00000000      -0.03977742
2
Properties=species:S:1:pos:R:3:forces:R:3 energy=-5.5924560839843345 pbc="F F F"
Ti       0.00000000       0.00000000       0.00000000       0.00000000       0.00000000       0.03992754
Ti       0.00000000       0.00000000       5.23575758       0.00000000       0.00000000      -0.03992754
2
Properties=species:S:1:pos:R:3:forces:R:3 energy=-5.590084916329416 pbc="F F F"
Ti       0.00000000       0.00000000       0.00000000       0.00000000       0.00000000       0.04077500
Ti       0.00000000       0.00000000       5.29454545       0.00000000       0.00000000      -0.04077500
2
Properties=species:S:1:pos:R:3:forces:R:3 energy=-5.587660362732935 pbc="F F F"
Ti       0.00000000       0.00000000       0.00000000       0.00000000       0.00000000       0.04170404
Ti       0.00000000       0.00000000       5.35333333       0.00000000       0.00000000      -0.04170404
2
Properties=species:S:1:pos:R:3:forces:R:3 energy=-5.58519207049213 pbc="F F F"
Ti       0.00000000       0.00000000       0.00000000       0.00000000       0.00000000       0.04221114
Ti       0.00000000       0.00000000       5.41212121       0.00000000       0.00000000      -0.04221114
2
Properties=species:S:1:pos:R:3:forces:R:3 energy=-5.582714514274538 pbc="F F F"
Ti       0.00000000       0.00000000       0.00000000       0.00000000       0.00000000       0.04196490
Ti       0.00000000       0.00000000       5.47090909       0.00000000       0.00000000      -0.04196490
2
Properties=species:S:1:pos:R:3:forces:R:3 energy=-5.580273803068673 pbc="F F F"
Ti       0.00000000       0.00000000       0.00000000       0.00000000       0.00000000       0.04083652
Ti       0.00000000       0.00000000       5.52969697       0.00000000       0.00000000      -0.04083652
2
Properties=species:S:1:pos:R:3:forces:R:3 energy=-5.577929676231677 pbc="F F F"
Ti       0.00000000       0.00000000       0.00000000       0.00000000       0.00000000       0.03888878
Ti       0.00000000       0.00000000       5.58848485       0.00000000       0.00000000      -0.03888878
2
Properties=species:S:1:pos:R:3:forces:R:3 energy=-5.575713576665441 pbc="F F F"
Ti       0.00000000       0.00000000       0.00000000       0.00000000       0.00000000       0.03633923
Ti       0.00000000       0.00000000       5.64727273       0.00000000       0.00000000      -0.03633923
2
Properties=species:S:1:pos:R:3:forces:R:3 energy=-5.573662124452347 pbc="F F F"
Ti       0.00000000       0.00000000       0.00000000       0.00000000       0.00000000       0.03349305
Ti       0.00000000       0.00000000       5.70606061       0.00000000       0.00000000      -0.03349305
2
Properties=species:S:1:pos:R:3:forces:R:3 energy=-5.5717753104086265 pbc="F F F"
Ti       0.00000000       0.00000000       0.00000000       0.00000000       0.00000000       0.03067281
Ti       0.00000000       0.00000000       5.76484848       0.00000000       0.00000000      -0.03067281
2
Properties=species:S:1:pos:R:3:forces:R:3 energy=-5.570047983175919 pbc="F F F"
Ti       0.00000000       0.00000000       0.00000000       0.00000000       0.00000000       0.02814712
Ti       0.00000000       0.00000000       5.82363636       0.00000000       0.00000000      -0.02814712
2
Properties=species:S:1:pos:R:3:forces:R:3 energy=-5.568457498972485 pbc="F F F"
Ti       0.00000000       0.00000000       0.00000000       0.00000000       0.00000000       0.02606524
Ti       0.00000000       0.00000000       5.88242424       0.00000000       0.00000000      -0.02606524
2
Properties=species:S:1:pos:R:3:forces:R:3 energy=-5.566977234592569 pbc="F F F"
Ti       0.00000000       0.00000000       0.00000000       0.00000000       0.00000000       0.02442603
Ti       0.00000000       0.00000000       5.94121212       0.00000000       0.00000000      -0.02442603
2
Properties=species:S:1:pos:R:3:forces:R:3 energy=-5.565580351418507 pbc="F F F"
Ti       0.00000000       0.00000000       0.00000000       0.00000000       0.00000000       0.02308579
Ti       0.00000000       0.00000000       6.00000000       0.00000000       0.00000000      -0.02308579
