2
Properties=species:S:1:pos:R:3:forces:R:3 energy=-313882.4204627747 pbc="F F F"
Tm       0.00000000       0.00000000       0.00000000       0.00000000       0.00000000 2498864.75000000
Tm       0.00000000       0.00000000       0.18000000       0.00000000       0.00000000 -2498864.75000000
2
Properties=species:S:1:pos:R:3:forces:R:3 energy=-171445.2329627747 pbc="F F F"
Tm       0.00000000       0.00000000       0.00000000       0.00000000       0.00000000 2120471.00000000
Tm       0.00000000       0.00000000       0.23878788       0.00000000       0.00000000 -2120471.00000000
2
Properties=species:S:1:pos:R:3:forces:R:3 energy=-74257.94390027471 pbc="F F F"
Tm       0.00000000       0.00000000       0.00000000       0.00000000       0.00000000 1198267.12500000
Tm       0.00000000       0.00000000       0.29757576       0.00000000       0.00000000 -1198267.12500000
2
Properties=species:S:1:pos:R:3:forces:R:3 energy=-25052.857962774706 pbc="F F F"
Tm       0.00000000       0.00000000       0.00000000       0.00000000       0.00000000  528463.00000000
Tm       0.00000000       0.00000000       0.35636364       0.00000000       0.00000000 -528463.00000000
2
Properties=species:S:1:pos:R:3:forces:R:3 energy=-5690.247122918287 pbc="F F F"
Tm       0.00000000       0.00000000       0.00000000       0.00000000       0.00000000  177242.12500000
Tm       0.00000000       0.00000000       0.41515152       0.00000000       0.00000000 -177242.12500000
2
Properties=species:S:1:pos:R:3:forces:R:3 energy=-472.969962273755 pbc="F F F"
Tm       0.00000000       0.00000000       0.00000000       0.00000000       0.00000000   20275.69335938
Tm       0.00000000       0.00000000       0.47393939       0.00000000       0.00000000  -20275.69335938
2
Properties=species:S:1:pos:R:3:forces:R:3 energy=5.648583271142829 pbc="F F F"
Tm       0.00000000       0.00000000       0.00000000       0.00000000       0.00000000     561.18780518
Tm       0.00000000       0.00000000       0.53272727       0.00000000       0.00000000    -561.18780518
2
Properties=species:S:1:pos:R:3:forces:R:3 energy=16.585314647657672 pbc="F F F"
Tm       0.00000000       0.00000000       0.00000000       0.00000000       0.00000000    1093.33898926
Tm       0.00000000       0.00000000       0.59151515       0.00000000       0.00000000   -1093.33898926
2
Properties=species:S:1:pos:R:3:forces:R:3 energy=91.69403165039321 pbc="F F F"
Tm       0.00000000       0.00000000       0.00000000       0.00000000       0.00000000    1350.44018555
Tm       0.00000000       0.00000000       0.65030303       0.00000000       0.00000000   -1350.44018555
2
Properties=species:S:1:pos:R:3:forces:R:3 energy=151.9559106937061 pbc="F F F"
Tm       0.00000000       0.00000000       0.00000000       0.00000000       0.00000000     945.20416260
Tm       0.00000000       0.00000000       0.70909091       0.00000000       0.00000000    -945.20416260
2
Properties=species:S:1:pos:R:3:forces:R:3 energy=186.7552729776936 pbc="F F F"
Tm       0.00000000       0.00000000       0.00000000       0.00000000       0.00000000     558.81872559
Tm       0.00000000       0.00000000       0.76787879       0.00000000       0.00000000    -558.81872559
2
Properties=species:S:1:pos:R:3:forces:R:3 energy=221.24186065416313 pbc="F F F"
Tm       0.00000000       0.00000000       0.00000000       0.00000000       0.00000000     361.20867920
Tm       0.00000000       0.00000000       0.82666667       0.00000000       0.00000000    -361.20867920
2
Properties=species:S:1:pos:R:3:forces:R:3 energy=205.80739738126977 pbc="F F F"
Tm       0.00000000       0.00000000       0.00000000       0.00000000       0.00000000    -663.35424805
Tm       0.00000000       0.00000000       0.88545455       0.00000000       0.00000000     663.35424805
2
Properties=species:S:1:pos:R:3:forces:R:3 energy=153.95621665510726 pbc="F F F"
Tm       0.00000000       0.00000000       0.00000000       0.00000000       0.00000000   -1065.91235352
Tm       0.00000000       0.00000000       0.94424242       0.00000000       0.00000000    1065.91235352
2
Properties=species:S:1:pos:R:3:forces:R:3 energy=97.38978794774746 pbc="F F F"
Tm       0.00000000       0.00000000       0.00000000       0.00000000       0.00000000    -797.55957031
Tm       0.00000000       0.00000000       1.00303030       0.00000000       0.00000000     797.55957031
2
Properties=species:S:1:pos:R:3:forces:R:3 energy=63.804446123400176 pbc="F F F"
Tm       0.00000000       0.00000000       0.00000000       0.00000000       0.00000000    -416.34970093
Tm       0.00000000       0.00000000       1.06181818       0.00000000       0.00000000     416.34970093
2
Properties=species:S:1:pos:R:3:forces:R:3 energy=49.96120043638785 pbc="F F F"
Tm       0.00000000       0.00000000       0.00000000       0.00000000       0.00000000     -59.04286575
Tm       0.00000000       0.00000000       1.12060606       0.00000000       0.00000000      59.04286575
2
Properties=species:S:1:pos:R:3:forces:R:3 energy=44.91573025868468 pbc="F F F"
Tm       0.00000000       0.00000000       0.00000000       0.00000000       0.00000000    -103.13984680
Tm       0.00000000       0.00000000       1.17939394       0.00000000       0.00000000     103.13984680
2
Properties=species:S:1:pos:R:3:forces:R:3 energy=39.20244421031178 pbc="F F F"
Tm       0.00000000       0.00000000       0.00000000       0.00000000       0.00000000     -83.30768585
Tm       0.00000000       0.00000000       1.23818182       0.00000000       0.00000000      83.30768585
2
Properties=species:S:1:pos:R:3:forces:R:3 energy=34.452789205675785 pbc="F F F"
Tm       0.00000000       0.00000000       0.00000000       0.00000000       0.00000000     -78.93510437
Tm       0.00000000       0.00000000       1.29696970       0.00000000       0.00000000      78.93510437
2
Properties=species:S:1:pos:R:3:forces:R:3 energy=30.24504861806965 pbc="F F F"
Tm       0.00000000       0.00000000       0.00000000       0.00000000       0.00000000     -65.28298950
Tm       0.00000000       0.00000000       1.35575758       0.00000000       0.00000000      65.28298950
2
Properties=species:S:1:pos:R:3:forces:R:3 energy=26.328600753209397 pbc="F F F"
Tm       0.00000000       0.00000000       0.00000000       0.00000000       0.00000000     -71.29978943
Tm       0.00000000       0.00000000       1.41454545       0.00000000       0.00000000      71.29978943
2
Properties=species:S:1:pos:R:3:forces:R:3 energy=22.059278791396775 pbc="F F F"
Tm       0.00000000       0.00000000       0.00000000       0.00000000       0.00000000     -68.33731842
Tm       0.00000000       0.00000000       1.47333333       0.00000000       0.00000000      68.33731842
2
Properties=species:S:1:pos:R:3:forces:R:3 energy=18.650209944889983 pbc="F F F"
Tm       0.00000000       0.00000000       0.00000000       0.00000000       0.00000000     -50.01296997
Tm       0.00000000       0.00000000       1.53212121       0.00000000       0.00000000      50.01296997
2
Properties=species:S:1:pos:R:3:forces:R:3 energy=15.884130215672027 pbc="F F F"
Tm       0.00000000       0.00000000       0.00000000       0.00000000       0.00000000     -45.20929718
Tm       0.00000000       0.00000000       1.59090909       0.00000000       0.00000000      45.20929718
2
Properties=species:S:1:pos:R:3:forces:R:3 energy=13.398017905212429 pbc="F F F"
Tm       0.00000000       0.00000000       0.00000000       0.00000000       0.00000000     -38.32722855
Tm       0.00000000       0.00000000       1.64969697       0.00000000       0.00000000      38.32722855
2
Properties=species:S:1:pos:R:3:forces:R:3 energy=11.253875360244777 pbc="F F F"
Tm       0.00000000       0.00000000       0.00000000       0.00000000       0.00000000     -35.56114960
Tm       0.00000000       0.00000000       1.70848485       0.00000000       0.00000000      35.56114960
2
Properties=species:S:1:pos:R:3:forces:R:3 energy=9.321413731093477 pbc="F F F"
Tm       0.00000000       0.00000000       0.00000000       0.00000000       0.00000000     -29.46032333
Tm       0.00000000       0.00000000       1.76727273       0.00000000       0.00000000      29.46032333
2
Properties=species:S:1:pos:R:3:forces:R:3 energy=7.768912893668873 pbc="F F F"
Tm       0.00000000       0.00000000       0.00000000       0.00000000       0.00000000     -23.42191505
Tm       0.00000000       0.00000000       1.82606061       0.00000000       0.00000000      23.42191505
2
Properties=species:S:1:pos:R:3:forces:R:3 energy=6.52192545688951 pbc="F F F"
Tm       0.00000000       0.00000000       0.00000000       0.00000000       0.00000000     -19.52709389
Tm       0.00000000       0.00000000       1.88484848       0.00000000       0.00000000      19.52709389
2
Properties=species:S:1:pos:R:3:forces:R:3 energy=5.432815311292095 pbc="F F F"
Tm       0.00000000       0.00000000       0.00000000       0.00000000       0.00000000     -17.60581589
Tm       0.00000000       0.00000000       1.94363636       0.00000000       0.00000000      17.60581589
2
Properties=species:S:1:pos:R:3:forces:R:3 energy=4.449651417775835 pbc="F F F"
Tm       0.00000000       0.00000000       0.00000000       0.00000000       0.00000000     -15.88877964
Tm       0.00000000       0.00000000       2.00242424       0.00000000       0.00000000      15.88877964
2
Properties=species:S:1:pos:R:3:forces:R:3 energy=3.5487410337487235 pbc="F F F"
Tm       0.00000000       0.00000000       0.00000000       0.00000000       0.00000000     -14.83633137
Tm       0.00000000       0.00000000       2.06121212       0.00000000       0.00000000      14.83633137
2
Properties=species:S:1:pos:R:3:forces:R:3 energy=2.7199412846627005 pbc="F F F"
Tm       0.00000000       0.00000000       0.00000000       0.00000000       0.00000000     -13.18807793
Tm       0.00000000       0.00000000       2.12000000       0.00000000       0.00000000      13.18807793
2
Properties=species:S:1:pos:R:3:forces:R:3 energy=1.9983955252437244 pbc="F F F"
Tm       0.00000000       0.00000000       0.00000000       0.00000000       0.00000000     -11.48537922
Tm       0.00000000       0.00000000       2.17878788       0.00000000       0.00000000      11.48537922
2
Properties=species:S:1:pos:R:3:forces:R:3 energy=1.362606523231621 pbc="F F F"
Tm       0.00000000       0.00000000       0.00000000       0.00000000       0.00000000     -10.12387371
Tm       0.00000000       0.00000000       2.23757576       0.00000000       0.00000000      10.12387371
2
Properties=species:S:1:pos:R:3:forces:R:3 energy=0.8082699376275418 pbc="F F F"
Tm       0.00000000       0.00000000       0.00000000       0.00000000       0.00000000      -8.74725246
Tm       0.00000000       0.00000000       2.29636364       0.00000000       0.00000000       8.74725246
2
Properties=species:S:1:pos:R:3:forces:R:3 energy=0.3329792900074414 pbc="F F F"
Tm       0.00000000       0.00000000       0.00000000       0.00000000       0.00000000      -7.45317316
Tm       0.00000000       0.00000000       2.35515152       0.00000000       0.00000000       7.45317316
2
Properties=species:S:1:pos:R:3:forces:R:3 energy=-0.07426159193544263 pbc="F F F"
Tm       0.00000000       0.00000000       0.00000000       0.00000000       0.00000000      -6.44795656
Tm       0.00000000       0.00000000       2.41393939       0.00000000       0.00000000       6.44795656
2
Properties=species:S:1:pos:R:3:forces:R:3 energy=-0.4283483407460603 pbc="F F F"
Tm       0.00000000       0.00000000       0.00000000       0.00000000       0.00000000      -5.61306477
Tm       0.00000000       0.00000000       2.47272727       0.00000000       0.00000000       5.61306477
2
Properties=species:S:1:pos:R:3:forces:R:3 energy=-0.7345645055343033 pbc="F F F"
Tm       0.00000000       0.00000000       0.00000000       0.00000000       0.00000000      -4.80351210
Tm       0.00000000       0.00000000       2.53151515       0.00000000       0.00000000       4.80351210
2
Properties=species:S:1:pos:R:3:forces:R:3 energy=-0.9949720221989339 pbc="F F F"
Tm       0.00000000       0.00000000       0.00000000       0.00000000       0.00000000      -4.08792496
Tm       0.00000000       0.00000000       2.59030303       0.00000000       0.00000000       4.08792496
2
Properties=species:S:1:pos:R:3:forces:R:3 energy=-1.2189865332647918 pbc="F F F"
Tm       0.00000000       0.00000000       0.00000000       0.00000000       0.00000000      -3.55678368
Tm       0.00000000       0.00000000       2.64909091       0.00000000       0.00000000       3.55678368
2
Properties=species:S:1:pos:R:3:forces:R:3 energy=-1.4145502037527145 pbc="F F F"
Tm       0.00000000       0.00000000       0.00000000       0.00000000       0.00000000      -3.09855103
Tm       0.00000000       0.00000000       2.70787879       0.00000000       0.00000000       3.09855103
2
Properties=species:S:1:pos:R:3:forces:R:3 energy=-1.583159199937352 pbc="F F F"
Tm       0.00000000       0.00000000       0.00000000       0.00000000       0.00000000      -2.63697553
Tm       0.00000000       0.00000000       2.76666667       0.00000000       0.00000000       2.63697553
2
Properties=species:S:1:pos:R:3:forces:R:3 energy=-1.7249210622609359 pbc="F F F"
Tm       0.00000000       0.00000000       0.00000000       0.00000000       0.00000000      -2.19221830
Tm       0.00000000       0.00000000       2.82545455       0.00000000       0.00000000       2.19221830
2
Properties=species:S:1:pos:R:3:forces:R:3 energy=-1.8419154156104283 pbc="F F F"
Tm       0.00000000       0.00000000       0.00000000       0.00000000       0.00000000      -1.79784489
Tm       0.00000000       0.00000000       2.88424242       0.00000000       0.00000000       1.79784489
2
Properties=species:S:1:pos:R:3:forces:R:3 energy=-1.9374597541354863 pbc="F F F"
Tm       0.00000000       0.00000000       0.00000000       0.00000000       0.00000000      -1.46168613
Tm       0.00000000       0.00000000       2.94303030       0.00000000       0.00000000       1.46168613
2
Properties=species:S:1:pos:R:3:forces:R:3 energy=-2.014653918829721 pbc="F F F"
Tm       0.00000000       0.00000000       0.00000000       0.00000000       0.00000000      -1.17039561
Tm       0.00000000       0.00000000       3.00181818       0.00000000       0.00000000       1.17039561
2
Properties=species:S:1:pos:R:3:forces:R:3 energy=-2.0756888610493416 pbc="F F F"
Tm       0.00000000       0.00000000       0.00000000       0.00000000       0.00000000      -0.91134185
Tm       0.00000000       0.00000000       3.06060606       0.00000000       0.00000000       0.91134185
2
Properties=species:S:1:pos:R:3:forces:R:3 energy=-2.1225189385567136 pbc="F F F"
Tm       0.00000000       0.00000000       0.00000000       0.00000000       0.00000000      -0.68877542
Tm       0.00000000       0.00000000       3.11939394       0.00000000       0.00000000       0.68877542
2
Properties=species:S:1:pos:R:3:forces:R:3 energy=-2.157518914760986 pbc="F F F"
Tm       0.00000000       0.00000000       0.00000000       0.00000000       0.00000000      -0.50885230
Tm       0.00000000       0.00000000       3.17818182       0.00000000       0.00000000       0.50885230
2
Properties=species:S:1:pos:R:3:forces:R:3 energy=-2.1830749528135938 pbc="F F F"
Tm       0.00000000       0.00000000       0.00000000       0.00000000       0.00000000      -0.36577976
Tm       0.00000000       0.00000000       3.23696970       0.00000000       0.00000000       0.36577976
2
Properties=species:S:1:pos:R:3:forces:R:3 energy=-2.200995073818324 pbc="F F F"
Tm       0.00000000       0.00000000       0.00000000       0.00000000       0.00000000      -0.24687970
Tm       0.00000000       0.00000000       3.29575758       0.00000000       0.00000000       0.24687970
2
Properties=species:S:1:pos:R:3:forces:R:3 energy=-2.2123672937770107 pbc="F F F"
Tm       0.00000000       0.00000000       0.00000000       0.00000000       0.00000000      -0.14181000
Tm       0.00000000       0.00000000       3.35454545       0.00000000       0.00000000       0.14181000
2
Properties=species:S:1:pos:R:3:forces:R:3 energy=-2.2178721943464748 pbc="F F F"
Tm       0.00000000       0.00000000       0.00000000       0.00000000       0.00000000      -0.04714935
Tm       0.00000000       0.00000000       3.41333333       0.00000000       0.00000000       0.04714935
2
Properties=species:S:1:pos:R:3:forces:R:3 energy=-2.2181083348566837 pbc="F F F"
Tm       0.00000000       0.00000000       0.00000000       0.00000000       0.00000000       0.03747836
Tm       0.00000000       0.00000000       3.47212121       0.00000000       0.00000000      -0.03747836
2
Properties=species:S:1:pos:R:3:forces:R:3 energy=-2.2136255738910235 pbc="F F F"
Tm       0.00000000       0.00000000       0.00000000       0.00000000       0.00000000       0.11396891
Tm       0.00000000       0.00000000       3.53090909       0.00000000       0.00000000      -0.11396891
2
Properties=species:S:1:pos:R:3:forces:R:3 energy=-2.204823891109743 pbc="F F F"
Tm       0.00000000       0.00000000       0.00000000       0.00000000       0.00000000       0.18461382
Tm       0.00000000       0.00000000       3.58969697       0.00000000       0.00000000      -0.18461382
2
Properties=species:S:1:pos:R:3:forces:R:3 energy=-2.1920232335582432 pbc="F F F"
Tm       0.00000000       0.00000000       0.00000000       0.00000000       0.00000000       0.24983364
Tm       0.00000000       0.00000000       3.64848485       0.00000000       0.00000000      -0.24983364
2
Properties=species:S:1:pos:R:3:forces:R:3 energy=-2.1755748231293945 pbc="F F F"
Tm       0.00000000       0.00000000       0.00000000       0.00000000       0.00000000       0.30854282
Tm       0.00000000       0.00000000       3.70727273       0.00000000       0.00000000      -0.30854282
2
Properties=species:S:1:pos:R:3:forces:R:3 energy=-2.1558929129199687 pbc="F F F"
Tm       0.00000000       0.00000000       0.00000000       0.00000000       0.00000000       0.35969299
Tm       0.00000000       0.00000000       3.76606061       0.00000000       0.00000000      -0.35969299
2
Properties=species:S:1:pos:R:3:forces:R:3 energy=-2.133439319365317 pbc="F F F"
Tm       0.00000000       0.00000000       0.00000000       0.00000000       0.00000000       0.40299779
Tm       0.00000000       0.00000000       3.82484848       0.00000000       0.00000000      -0.40299779
2
Properties=species:S:1:pos:R:3:forces:R:3 energy=-2.1086597097938555 pbc="F F F"
Tm       0.00000000       0.00000000       0.00000000       0.00000000       0.00000000       0.43873715
Tm       0.00000000       0.00000000       3.88363636       0.00000000       0.00000000      -0.43873715
2
Properties=species:S:1:pos:R:3:forces:R:3 energy=-2.081992115803824 pbc="F F F"
Tm       0.00000000       0.00000000       0.00000000       0.00000000       0.00000000       0.46738473
Tm       0.00000000       0.00000000       3.94242424       0.00000000       0.00000000      -0.46738473
2
Properties=species:S:1:pos:R:3:forces:R:3 energy=-2.0538345906999047 pbc="F F F"
Tm       0.00000000       0.00000000       0.00000000       0.00000000       0.00000000       0.48949412
Tm       0.00000000       0.00000000       4.00121212       0.00000000       0.00000000      -0.48949412
2
Properties=species:S:1:pos:R:3:forces:R:3 energy=-2.0245538052333583 pbc="F F F"
Tm       0.00000000       0.00000000       0.00000000       0.00000000       0.00000000       0.50578809
Tm       0.00000000       0.00000000       4.06000000       0.00000000       0.00000000      -0.50578809
2
Properties=species:S:1:pos:R:3:forces:R:3 energy=-1.9944640984452855 pbc="F F F"
Tm       0.00000000       0.00000000       0.00000000       0.00000000       0.00000000       0.51714325
Tm       0.00000000       0.00000000       4.11878788       0.00000000       0.00000000      -0.51714325
2
Properties=species:S:1:pos:R:3:forces:R:3 energy=-1.9638303830390853 pbc="F F F"
Tm       0.00000000       0.00000000       0.00000000       0.00000000       0.00000000       0.52436036
Tm       0.00000000       0.00000000       4.17757576       0.00000000       0.00000000      -0.52436036
2
Properties=species:S:1:pos:R:3:forces:R:3 energy=-1.9328843958576996 pbc="F F F"
Tm       0.00000000       0.00000000       0.00000000       0.00000000       0.00000000       0.52789146
Tm       0.00000000       0.00000000       4.23636364       0.00000000       0.00000000      -0.52789146
2
Properties=species:S:1:pos:R:3:forces:R:3 energy=-1.9018352453218932 pbc="F F F"
Tm       0.00000000       0.00000000       0.00000000       0.00000000       0.00000000       0.52775979
Tm       0.00000000       0.00000000       4.29515152       0.00000000       0.00000000      -0.52775979
2
Properties=species:S:1:pos:R:3:forces:R:3 energy=-1.8709075964167747 pbc="F F F"
Tm       0.00000000       0.00000000       0.00000000       0.00000000       0.00000000       0.52375221
Tm       0.00000000       0.00000000       4.35393939       0.00000000       0.00000000      -0.52375221
2
Properties=species:S:1:pos:R:3:forces:R:3 energy=-1.8403359486458994 pbc="F F F"
Tm       0.00000000       0.00000000       0.00000000       0.00000000       0.00000000       0.51568323
Tm       0.00000000       0.00000000       4.41272727       0.00000000       0.00000000      -0.51568323
2
Properties=species:S:1:pos:R:3:forces:R:3 energy=-1.8103561796753063 pbc="F F F"
Tm       0.00000000       0.00000000       0.00000000       0.00000000       0.00000000       0.50361067
Tm       0.00000000       0.00000000       4.47151515       0.00000000       0.00000000      -0.50361067
2
Properties=species:S:1:pos:R:3:forces:R:3 energy=-1.781191202204907 pbc="F F F"
Tm       0.00000000       0.00000000       0.00000000       0.00000000       0.00000000       0.48791561
Tm       0.00000000       0.00000000       4.53030303       0.00000000       0.00000000      -0.48791561
2
Properties=species:S:1:pos:R:3:forces:R:3 energy=-1.7530462779602791 pbc="F F F"
Tm       0.00000000       0.00000000       0.00000000       0.00000000       0.00000000       0.46921986
Tm       0.00000000       0.00000000       4.58909091       0.00000000       0.00000000      -0.46921986
2
Properties=species:S:1:pos:R:3:forces:R:3 energy=-1.7260699740664924 pbc="F F F"
Tm       0.00000000       0.00000000       0.00000000       0.00000000       0.00000000       0.44832540
Tm       0.00000000       0.00000000       4.64787879       0.00000000       0.00000000      -0.44832540
2
Properties=species:S:1:pos:R:3:forces:R:3 energy=-1.7003608007544584 pbc="F F F"
Tm       0.00000000       0.00000000       0.00000000       0.00000000       0.00000000       0.42609474
Tm       0.00000000       0.00000000       4.70666667       0.00000000       0.00000000      -0.42609474
2
Properties=species:S:1:pos:R:3:forces:R:3 energy=-1.675977752463564 pbc="F F F"
Tm       0.00000000       0.00000000       0.00000000       0.00000000       0.00000000       0.40342161
Tm       0.00000000       0.00000000       4.76545455       0.00000000       0.00000000      -0.40342161
2
Properties=species:S:1:pos:R:3:forces:R:3 energy=-1.652919396698799 pbc="F F F"
Tm       0.00000000       0.00000000       0.00000000       0.00000000       0.00000000       0.38117474
Tm       0.00000000       0.00000000       4.82424242       0.00000000       0.00000000      -0.38117474
2
Properties=species:S:1:pos:R:3:forces:R:3 energy=-1.6311409831476518 pbc="F F F"
Tm       0.00000000       0.00000000       0.00000000       0.00000000       0.00000000       0.36012331
Tm       0.00000000       0.00000000       4.88303030       0.00000000       0.00000000      -0.36012331
2
Properties=species:S:1:pos:R:3:forces:R:3 energy=-1.6105439215844086 pbc="F F F"
Tm       0.00000000       0.00000000       0.00000000       0.00000000       0.00000000       0.34082001
Tm       0.00000000       0.00000000       4.94181818       0.00000000       0.00000000      -0.34082001
2
Properties=species:S:1:pos:R:3:forces:R:3 energy=-1.5910263582871431 pbc="F F F"
Tm       0.00000000       0.00000000       0.00000000       0.00000000       0.00000000       0.32349047
Tm       0.00000000       0.00000000       5.00060606       0.00000000       0.00000000      -0.32349047
2
Properties=species:S:1:pos:R:3:forces:R:3 energy=-1.572474599304514 pbc="F F F"
Tm       0.00000000       0.00000000       0.00000000       0.00000000       0.00000000       0.30793265
Tm       0.00000000       0.00000000       5.05939394       0.00000000       0.00000000      -0.30793265
2
Properties=species:S:1:pos:R:3:forces:R:3 energy=-1.5547972970113366 pbc="F F F"
Tm       0.00000000       0.00000000       0.00000000       0.00000000       0.00000000       0.29349637
Tm       0.00000000       0.00000000       5.11818182       0.00000000       0.00000000      -0.29349637
2
Properties=species:S:1:pos:R:3:forces:R:3 energy=-1.5379645317486226 pbc="F F F"
Tm       0.00000000       0.00000000       0.00000000       0.00000000       0.00000000       0.27917382
Tm       0.00000000       0.00000000       5.17696970       0.00000000       0.00000000      -0.27917382
2
Properties=species:S:1:pos:R:3:forces:R:3 energy=-1.5219973657556092 pbc="F F F"
Tm       0.00000000       0.00000000       0.00000000       0.00000000       0.00000000       0.26380438
Tm       0.00000000       0.00000000       5.23575758       0.00000000       0.00000000      -0.26380438
2
Properties=species:S:1:pos:R:3:forces:R:3 energy=-1.5069885769145936 pbc="F F F"
Tm       0.00000000       0.00000000       0.00000000       0.00000000       0.00000000       0.24631326
Tm       0.00000000       0.00000000       5.29454545       0.00000000       0.00000000      -0.24631326
2
Properties=species:S:1:pos:R:3:forces:R:3 energy=-1.49309222535425 pbc="F F F"
Tm       0.00000000       0.00000000       0.00000000       0.00000000       0.00000000       0.22596949
Tm       0.00000000       0.00000000       5.35333333       0.00000000       0.00000000      -0.22596949
2
Properties=species:S:1:pos:R:3:forces:R:3 energy=-1.480478729386451 pbc="F F F"
Tm       0.00000000       0.00000000       0.00000000       0.00000000       0.00000000       0.20259196
Tm       0.00000000       0.00000000       5.41212121       0.00000000       0.00000000      -0.20259196
2
Properties=species:S:1:pos:R:3:forces:R:3 energy=-1.4693232566877172 pbc="F F F"
Tm       0.00000000       0.00000000       0.00000000       0.00000000       0.00000000       0.17662783
Tm       0.00000000       0.00000000       5.47090909       0.00000000       0.00000000      -0.17662783
2
Properties=species:S:1:pos:R:3:forces:R:3 energy=-1.4597437227973646 pbc="F F F"
Tm       0.00000000       0.00000000       0.00000000       0.00000000       0.00000000       0.14913905
Tm       0.00000000       0.00000000       5.52969697       0.00000000       0.00000000      -0.14913905
2
Properties=species:S:1:pos:R:3:forces:R:3 energy=-1.4517883426662352 pbc="F F F"
Tm       0.00000000       0.00000000       0.00000000       0.00000000       0.00000000       0.12162855
Tm       0.00000000       0.00000000       5.58848485       0.00000000       0.00000000      -0.12162855
2
Properties=species:S:1:pos:R:3:forces:R:3 energy=-1.4454116304076794 pbc="F F F"
Tm       0.00000000       0.00000000       0.00000000       0.00000000       0.00000000       0.09584026
Tm       0.00000000       0.00000000       5.64727273       0.00000000       0.00000000      -0.09584026
2
Properties=species:S:1:pos:R:3:forces:R:3 energy=-1.4404533772809085 pbc="F F F"
Tm       0.00000000       0.00000000       0.00000000       0.00000000       0.00000000       0.07340417
Tm       0.00000000       0.00000000       5.70606061       0.00000000       0.00000000      -0.07340417
2
Properties=species:S:1:pos:R:3:forces:R:3 energy=-1.4366863385746358 pbc="F F F"
Tm       0.00000000       0.00000000       0.00000000       0.00000000       0.00000000       0.05557987
Tm       0.00000000       0.00000000       5.76484848       0.00000000       0.00000000      -0.05557987
2
Properties=species:S:1:pos:R:3:forces:R:3 energy=-1.4338141995455587 pbc="F F F"
Tm       0.00000000       0.00000000       0.00000000       0.00000000       0.00000000       0.04302466
Tm       0.00000000       0.00000000       5.82363636       0.00000000       0.00000000      -0.04302466
2
Properties=species:S:1:pos:R:3:forces:R:3 energy=-1.4315297115377932 pbc="F F F"
Tm       0.00000000       0.00000000       0.00000000       0.00000000       0.00000000       0.03555712
Tm       0.00000000       0.00000000       5.88242424       0.00000000       0.00000000      -0.03555712
2
Properties=species:S:1:pos:R:3:forces:R:3 energy=-1.4295547938214959 pbc="F F F"
Tm       0.00000000       0.00000000       0.00000000       0.00000000       0.00000000       0.03213771
Tm       0.00000000       0.00000000       5.94121212       0.00000000       0.00000000      -0.03213771
2
Properties=species:S:1:pos:R:3:forces:R:3 energy=-1.427705266236959 pbc="F F F"
Tm       0.00000000       0.00000000       0.00000000       0.00000000       0.00000000       0.03099215
Tm       0.00000000       0.00000000       6.00000000       0.00000000       0.00000000      -0.03099215
