2
Properties=species:S:1:pos:R:3:forces:R:3 energy=1702.1761831678966 pbc="F F F"
U        0.00000000       0.00000000       0.00000000       0.00000000       0.00000000   -2140.25268555
U        0.00000000       0.00000000       0.10000000       0.00000000       0.00000000    2140.25268555
2
Properties=species:S:1:pos:R:3:forces:R:3 energy=1542.6846060194591 pbc="F F F"
U        0.00000000       0.00000000       0.00000000       0.00000000       0.00000000   -3168.78076172
U        0.00000000       0.00000000       0.15959596       0.00000000       0.00000000    3168.78076172
2
Properties=species:S:1:pos:R:3:forces:R:3 energy=1330.1332144178966 pbc="F F F"
U        0.00000000       0.00000000       0.00000000       0.00000000       0.00000000   -3913.88964844
U        0.00000000       0.00000000       0.21919192       0.00000000       0.00000000    3913.88964844
2
Properties=species:S:1:pos:R:3:forces:R:3 energy=1082.8041128553966 pbc="F F F"
U        0.00000000       0.00000000       0.00000000       0.00000000       0.00000000   -4324.50634766
U        0.00000000       0.00000000       0.27878788       0.00000000       0.00000000    4324.50634766
2
Properties=species:S:1:pos:R:3:forces:R:3 energy=-11310.226404722729 pbc="F F F"
U        0.00000000       0.00000000       0.00000000       0.00000000       0.00000000 -836937.56250000
U        0.00000000       0.00000000       0.33838384       0.00000000       0.00000000  836937.56250000
2
Properties=species:S:1:pos:R:3:forces:R:3 energy=-76322.86995941022 pbc="F F F"
U        0.00000000       0.00000000       0.00000000       0.00000000       0.00000000 -445441.65625000
U        0.00000000       0.00000000       0.39797980       0.00000000       0.00000000  445441.65625000
2
Properties=species:S:1:pos:R:3:forces:R:3 energy=-54598.69027191023 pbc="F F F"
U        0.00000000       0.00000000       0.00000000       0.00000000       0.00000000 1196124.00000000
U        0.00000000       0.00000000       0.45757576       0.00000000       0.00000000 -1196124.00000000
2
Properties=species:S:1:pos:R:3:forces:R:3 energy=7505.452794521364 pbc="F F F"
U        0.00000000       0.00000000       0.00000000       0.00000000       0.00000000  601964.75000000
U        0.00000000       0.00000000       0.51717172       0.00000000       0.00000000 -601964.75000000
2
Properties=species:S:1:pos:R:3:forces:R:3 energy=13121.432775002786 pbc="F F F"
U        0.00000000       0.00000000       0.00000000       0.00000000       0.00000000 -113024.78125000
U        0.00000000       0.00000000       0.57676768       0.00000000       0.00000000  113024.78125000
2
Properties=species:S:1:pos:R:3:forces:R:3 energy=6983.772618790799 pbc="F F F"
U        0.00000000       0.00000000       0.00000000       0.00000000       0.00000000  -78457.73437500
U        0.00000000       0.00000000       0.63636364       0.00000000       0.00000000   78457.73437500
2
Properties=species:S:1:pos:R:3:forces:R:3 energy=3750.333165729156 pbc="F F F"
U        0.00000000       0.00000000       0.00000000       0.00000000       0.00000000  -33911.06250000
U        0.00000000       0.00000000       0.69595960       0.00000000       0.00000000   33911.06250000
2
Properties=species:S:1:pos:R:3:forces:R:3 energy=2132.933751755355 pbc="F F F"
U        0.00000000       0.00000000       0.00000000       0.00000000       0.00000000  -20433.25976562
U        0.00000000       0.00000000       0.75555556       0.00000000       0.00000000   20433.25976562
2
Properties=species:S:1:pos:R:3:forces:R:3 energy=1256.4620722199104 pbc="F F F"
U        0.00000000       0.00000000       0.00000000       0.00000000       0.00000000  -10160.94238281
U        0.00000000       0.00000000       0.81515152       0.00000000       0.00000000   10160.94238281
2
Properties=species:S:1:pos:R:3:forces:R:3 energy=688.1944332498234 pbc="F F F"
U        0.00000000       0.00000000       0.00000000       0.00000000       0.00000000   -8145.52539062
U        0.00000000       0.00000000       0.87474747       0.00000000       0.00000000    8145.52539062
2
Properties=species:S:1:pos:R:3:forces:R:3 energy=313.00311884399747 pbc="F F F"
U        0.00000000       0.00000000       0.00000000       0.00000000       0.00000000   -4698.39550781
U        0.00000000       0.00000000       0.93434343       0.00000000       0.00000000    4698.39550781
2
Properties=species:S:1:pos:R:3:forces:R:3 energy=115.84875369725661 pbc="F F F"
U        0.00000000       0.00000000       0.00000000       0.00000000       0.00000000   -2120.49316406
U        0.00000000       0.00000000       0.99393939       0.00000000       0.00000000    2120.49316406
2
Properties=species:S:1:pos:R:3:forces:R:3 energy=36.88263635789272 pbc="F F F"
U        0.00000000       0.00000000       0.00000000       0.00000000       0.00000000    -748.20898438
U        0.00000000       0.00000000       1.05353535       0.00000000       0.00000000     748.20898438
2
Properties=species:S:1:pos:R:3:forces:R:3 energy=10.917465253520039 pbc="F F F"
U        0.00000000       0.00000000       0.00000000       0.00000000       0.00000000    -191.28601074
U        0.00000000       0.00000000       1.11313131       0.00000000       0.00000000     191.28601074
2
Properties=species:S:1:pos:R:3:forces:R:3 energy=4.03709320276805 pbc="F F F"
U        0.00000000       0.00000000       0.00000000       0.00000000       0.00000000     -98.31432343
U        0.00000000       0.00000000       1.17272727       0.00000000       0.00000000      98.31432343
2
Properties=species:S:1:pos:R:3:forces:R:3 energy=1.2899077457738644 pbc="F F F"
U        0.00000000       0.00000000       0.00000000       0.00000000       0.00000000       8.98567390
U        0.00000000       0.00000000       1.23232323       0.00000000       0.00000000      -8.98567390
2
Properties=species:S:1:pos:R:3:forces:R:3 energy=1.0556849848843533 pbc="F F F"
U        0.00000000       0.00000000       0.00000000       0.00000000       0.00000000     -17.81756210
U        0.00000000       0.00000000       1.29191919       0.00000000       0.00000000      17.81756210
2
Properties=species:S:1:pos:R:3:forces:R:3 energy=-0.07851026083075972 pbc="F F F"
U        0.00000000       0.00000000       0.00000000       0.00000000       0.00000000     -14.12199497
U        0.00000000       0.00000000       1.35151515       0.00000000       0.00000000      14.12199497
2
Properties=species:S:1:pos:R:3:forces:R:3 energy=-0.7517446241820238 pbc="F F F"
U        0.00000000       0.00000000       0.00000000       0.00000000       0.00000000     -11.24982738
U        0.00000000       0.00000000       1.41111111       0.00000000       0.00000000      11.24982738
2
Properties=species:S:1:pos:R:3:forces:R:3 energy=-1.4242860117577247 pbc="F F F"
U        0.00000000       0.00000000       0.00000000       0.00000000       0.00000000      -8.12681770
U        0.00000000       0.00000000       1.47070707       0.00000000       0.00000000       8.12681770
2
Properties=species:S:1:pos:R:3:forces:R:3 energy=-1.6790066622494693 pbc="F F F"
U        0.00000000       0.00000000       0.00000000       0.00000000       0.00000000      -3.40356660
U        0.00000000       0.00000000       1.53030303       0.00000000       0.00000000       3.40356660
2
Properties=species:S:1:pos:R:3:forces:R:3 energy=-1.9808418023639012 pbc="F F F"
U        0.00000000       0.00000000       0.00000000       0.00000000       0.00000000      -6.92348051
U        0.00000000       0.00000000       1.58989899       0.00000000       0.00000000       6.92348051
2
Properties=species:S:1:pos:R:3:forces:R:3 energy=-2.504830520742239 pbc="F F F"
U        0.00000000       0.00000000       0.00000000       0.00000000       0.00000000     -10.36924934
U        0.00000000       0.00000000       1.64949495       0.00000000       0.00000000      10.36924934
2
Properties=species:S:1:pos:R:3:forces:R:3 energy=-3.297677885958122 pbc="F F F"
U        0.00000000       0.00000000       0.00000000       0.00000000       0.00000000     -16.86713600
U        0.00000000       0.00000000       1.70909091       0.00000000       0.00000000      16.86713600
2
Properties=species:S:1:pos:R:3:forces:R:3 energy=-4.467440755379525 pbc="F F F"
U        0.00000000       0.00000000       0.00000000       0.00000000       0.00000000     -21.88048553
U        0.00000000       0.00000000       1.76868687       0.00000000       0.00000000      21.88048553
2
Properties=species:S:1:pos:R:3:forces:R:3 energy=-5.874726010126184 pbc="F F F"
U        0.00000000       0.00000000       0.00000000       0.00000000       0.00000000     -25.02126503
U        0.00000000       0.00000000       1.82828283       0.00000000       0.00000000      25.02126503
2
Properties=species:S:1:pos:R:3:forces:R:3 energy=-7.3927862907672495 pbc="F F F"
U        0.00000000       0.00000000       0.00000000       0.00000000       0.00000000     -25.67840576
U        0.00000000       0.00000000       1.88787879       0.00000000       0.00000000      25.67840576
2
Properties=species:S:1:pos:R:3:forces:R:3 energy=-8.905776553958006 pbc="F F F"
U        0.00000000       0.00000000       0.00000000       0.00000000       0.00000000     -24.68311691
U        0.00000000       0.00000000       1.94747475       0.00000000       0.00000000      24.68311691
2
Properties=species:S:1:pos:R:3:forces:R:3 energy=-10.291437368244166 pbc="F F F"
U        0.00000000       0.00000000       0.00000000       0.00000000       0.00000000     -21.51764297
U        0.00000000       0.00000000       2.00707071       0.00000000       0.00000000      21.51764297
2
Properties=species:S:1:pos:R:3:forces:R:3 energy=-11.460725677241566 pbc="F F F"
U        0.00000000       0.00000000       0.00000000       0.00000000       0.00000000     -17.70352364
U        0.00000000       0.00000000       2.06666667       0.00000000       0.00000000      17.70352364
2
Properties=species:S:1:pos:R:3:forces:R:3 energy=-12.383117813311939 pbc="F F F"
U        0.00000000       0.00000000       0.00000000       0.00000000       0.00000000     -13.15635490
U        0.00000000       0.00000000       2.12626263       0.00000000       0.00000000      13.15635490
2
Properties=species:S:1:pos:R:3:forces:R:3 energy=-13.042294986389578 pbc="F F F"
U        0.00000000       0.00000000       0.00000000       0.00000000       0.00000000      -9.12800694
U        0.00000000       0.00000000       2.18585859       0.00000000       0.00000000       9.12800694
2
Properties=species:S:1:pos:R:3:forces:R:3 energy=-13.475424264098818 pbc="F F F"
U        0.00000000       0.00000000       0.00000000       0.00000000       0.00000000      -5.45813799
U        0.00000000       0.00000000       2.24545455       0.00000000       0.00000000       5.45813799
2
Properties=species:S:1:pos:R:3:forces:R:3 energy=-13.713997334850617 pbc="F F F"
U        0.00000000       0.00000000       0.00000000       0.00000000       0.00000000      -2.73470283
U        0.00000000       0.00000000       2.30505051       0.00000000       0.00000000       2.73470283
2
Properties=species:S:1:pos:R:3:forces:R:3 energy=-13.814573165777517 pbc="F F F"
U        0.00000000       0.00000000       0.00000000       0.00000000       0.00000000      -0.71908855
U        0.00000000       0.00000000       2.36464646       0.00000000       0.00000000       0.71908855
2
Properties=species:S:1:pos:R:3:forces:R:3 energy=-13.810638417918799 pbc="F F F"
U        0.00000000       0.00000000       0.00000000       0.00000000       0.00000000       0.75941902
U        0.00000000       0.00000000       2.42424242       0.00000000       0.00000000      -0.75941902
2
Properties=species:S:1:pos:R:3:forces:R:3 energy=-13.73447901299295 pbc="F F F"
U        0.00000000       0.00000000       0.00000000       0.00000000       0.00000000       1.71045804
U        0.00000000       0.00000000       2.48383838       0.00000000       0.00000000      -1.71045804
2
Properties=species:S:1:pos:R:3:forces:R:3 energy=-13.615329064220793 pbc="F F F"
U        0.00000000       0.00000000       0.00000000       0.00000000       0.00000000       2.23080230
U        0.00000000       0.00000000       2.54343434       0.00000000       0.00000000      -2.23080230
2
Properties=species:S:1:pos:R:3:forces:R:3 energy=-13.47537395123772 pbc="F F F"
U        0.00000000       0.00000000       0.00000000       0.00000000       0.00000000       2.40799308
U        0.00000000       0.00000000       2.60303030       0.00000000       0.00000000      -2.40799308
2
Properties=species:S:1:pos:R:3:forces:R:3 energy=-13.333853128373157 pbc="F F F"
U        0.00000000       0.00000000       0.00000000       0.00000000       0.00000000       2.31411147
U        0.00000000       0.00000000       2.66262626       0.00000000       0.00000000      -2.31411147
2
Properties=species:S:1:pos:R:3:forces:R:3 energy=-13.200588541424597 pbc="F F F"
U        0.00000000       0.00000000       0.00000000       0.00000000       0.00000000       2.16176271
U        0.00000000       0.00000000       2.72222222       0.00000000       0.00000000      -2.16176271
2
Properties=species:S:1:pos:R:3:forces:R:3 energy=-13.075399619820411 pbc="F F F"
U        0.00000000       0.00000000       0.00000000       0.00000000       0.00000000       2.04468083
U        0.00000000       0.00000000       2.78181818       0.00000000       0.00000000      -2.04468083
2
Properties=species:S:1:pos:R:3:forces:R:3 energy=-12.956684168694128 pbc="F F F"
U        0.00000000       0.00000000       0.00000000       0.00000000       0.00000000       1.93766201
U        0.00000000       0.00000000       2.84141414       0.00000000       0.00000000      -1.93766201
2
Properties=species:S:1:pos:R:3:forces:R:3 energy=-12.844928948741119 pbc="F F F"
U        0.00000000       0.00000000       0.00000000       0.00000000       0.00000000       1.80752194
U        0.00000000       0.00000000       2.90101010       0.00000000       0.00000000      -1.80752194
2
Properties=species:S:1:pos:R:3:forces:R:3 energy=-12.74179034352119 pbc="F F F"
U        0.00000000       0.00000000       0.00000000       0.00000000       0.00000000       1.65101182
U        0.00000000       0.00000000       2.96060606       0.00000000       0.00000000      -1.65101182
2
Properties=species:S:1:pos:R:3:forces:R:3 energy=-12.648171717350516 pbc="F F F"
U        0.00000000       0.00000000       0.00000000       0.00000000       0.00000000       1.49219704
U        0.00000000       0.00000000       3.02020202       0.00000000       0.00000000      -1.49219704
2
Properties=species:S:1:pos:R:3:forces:R:3 energy=-12.563777805313727 pbc="F F F"
U        0.00000000       0.00000000       0.00000000       0.00000000       0.00000000       1.33984613
U        0.00000000       0.00000000       3.07979798       0.00000000       0.00000000      -1.33984613
2
Properties=species:S:1:pos:R:3:forces:R:3 energy=-12.48870437430775 pbc="F F F"
U        0.00000000       0.00000000       0.00000000       0.00000000       0.00000000       1.17685330
U        0.00000000       0.00000000       3.13939394       0.00000000       0.00000000      -1.17685330
2
Properties=species:S:1:pos:R:3:forces:R:3 energy=-12.423732350868894 pbc="F F F"
U        0.00000000       0.00000000       0.00000000       0.00000000       0.00000000       1.00328219
U        0.00000000       0.00000000       3.19898990       0.00000000       0.00000000      -1.00328219
2
Properties=species:S:1:pos:R:3:forces:R:3 energy=-12.36893254163511 pbc="F F F"
U        0.00000000       0.00000000       0.00000000       0.00000000       0.00000000       0.83883971
U        0.00000000       0.00000000       3.25858586       0.00000000       0.00000000      -0.83883971
2
Properties=species:S:1:pos:R:3:forces:R:3 energy=-12.323286315050224 pbc="F F F"
U        0.00000000       0.00000000       0.00000000       0.00000000       0.00000000       0.69738930
U        0.00000000       0.00000000       3.31818182       0.00000000       0.00000000      -0.69738930
2
Properties=species:S:1:pos:R:3:forces:R:3 energy=-12.285297936302797 pbc="F F F"
U        0.00000000       0.00000000       0.00000000       0.00000000       0.00000000       0.58159238
U        0.00000000       0.00000000       3.37777778       0.00000000       0.00000000      -0.58159238
2
Properties=species:S:1:pos:R:3:forces:R:3 energy=-12.253503293889294 pbc="F F F"
U        0.00000000       0.00000000       0.00000000       0.00000000       0.00000000       0.48894691
U        0.00000000       0.00000000       3.43737374       0.00000000       0.00000000      -0.48894691
2
Properties=species:S:1:pos:R:3:forces:R:3 energy=-12.226587610363913 pbc="F F F"
U        0.00000000       0.00000000       0.00000000       0.00000000       0.00000000       0.41805080
U        0.00000000       0.00000000       3.49696970       0.00000000       0.00000000      -0.41805080
2
Properties=species:S:1:pos:R:3:forces:R:3 energy=-12.203245008131907 pbc="F F F"
U        0.00000000       0.00000000       0.00000000       0.00000000       0.00000000       0.36894011
U        0.00000000       0.00000000       3.55656566       0.00000000       0.00000000      -0.36894011
2
Properties=species:S:1:pos:R:3:forces:R:3 energy=-12.18221498048449 pbc="F F F"
U        0.00000000       0.00000000       0.00000000       0.00000000       0.00000000       0.33969358
U        0.00000000       0.00000000       3.61616162       0.00000000       0.00000000      -0.33969358
2
Properties=species:S:1:pos:R:3:forces:R:3 energy=-12.162448799767557 pbc="F F F"
U        0.00000000       0.00000000       0.00000000       0.00000000       0.00000000       0.32574239
U        0.00000000       0.00000000       3.67575758       0.00000000       0.00000000      -0.32574239
2
Properties=species:S:1:pos:R:3:forces:R:3 energy=-12.143183764594193 pbc="F F F"
U        0.00000000       0.00000000       0.00000000       0.00000000       0.00000000       0.32215622
U        0.00000000       0.00000000       3.73535354       0.00000000       0.00000000      -0.32215622
2
Properties=species:S:1:pos:R:3:forces:R:3 energy=-12.123914728999354 pbc="F F F"
U        0.00000000       0.00000000       0.00000000       0.00000000       0.00000000       0.32550853
U        0.00000000       0.00000000       3.79494949       0.00000000       0.00000000      -0.32550853
2
Properties=species:S:1:pos:R:3:forces:R:3 energy=-12.104287953151118 pbc="F F F"
U        0.00000000       0.00000000       0.00000000       0.00000000       0.00000000       0.33395323
U        0.00000000       0.00000000       3.85454545       0.00000000       0.00000000      -0.33395323
2
Properties=species:S:1:pos:R:3:forces:R:3 energy=-12.08403182725036 pbc="F F F"
U        0.00000000       0.00000000       0.00000000       0.00000000       0.00000000       0.34633276
U        0.00000000       0.00000000       3.91414141       0.00000000       0.00000000      -0.34633276
2
Properties=species:S:1:pos:R:3:forces:R:3 energy=-12.062952065145325 pbc="F F F"
U        0.00000000       0.00000000       0.00000000       0.00000000       0.00000000       0.36146098
U        0.00000000       0.00000000       3.97373737       0.00000000       0.00000000      -0.36146098
2
Properties=species:S:1:pos:R:3:forces:R:3 energy=-12.040920127191283 pbc="F F F"
U        0.00000000       0.00000000       0.00000000       0.00000000       0.00000000       0.37801415
U        0.00000000       0.00000000       4.03333333       0.00000000       0.00000000      -0.37801415
2
Properties=species:S:1:pos:R:3:forces:R:3 energy=-12.017891498453666 pbc="F F F"
U        0.00000000       0.00000000       0.00000000       0.00000000       0.00000000       0.39476091
U        0.00000000       0.00000000       4.09292929       0.00000000       0.00000000      -0.39476091
2
Properties=species:S:1:pos:R:3:forces:R:3 energy=-11.993881853185783 pbc="F F F"
U        0.00000000       0.00000000       0.00000000       0.00000000       0.00000000       0.41073003
U        0.00000000       0.00000000       4.15252525       0.00000000       0.00000000      -0.41073003
2
Properties=species:S:1:pos:R:3:forces:R:3 energy=-11.968968078195243 pbc="F F F"
U        0.00000000       0.00000000       0.00000000       0.00000000       0.00000000       0.42513615
U        0.00000000       0.00000000       4.21212121       0.00000000       0.00000000      -0.42513615
2
Properties=species:S:1:pos:R:3:forces:R:3 energy=-11.943255835245887 pbc="F F F"
U        0.00000000       0.00000000       0.00000000       0.00000000       0.00000000       0.43722415
U        0.00000000       0.00000000       4.27171717       0.00000000       0.00000000      -0.43722415
2
Properties=species:S:1:pos:R:3:forces:R:3 energy=-11.916913041029195 pbc="F F F"
U        0.00000000       0.00000000       0.00000000       0.00000000       0.00000000       0.44624150
U        0.00000000       0.00000000       4.33131313       0.00000000       0.00000000      -0.44624150
2
Properties=species:S:1:pos:R:3:forces:R:3 energy=-11.890142204273445 pbc="F F F"
U        0.00000000       0.00000000       0.00000000       0.00000000       0.00000000       0.45154029
U        0.00000000       0.00000000       4.39090909       0.00000000       0.00000000      -0.45154029
2
Properties=species:S:1:pos:R:3:forces:R:3 energy=-11.863176693409837 pbc="F F F"
U        0.00000000       0.00000000       0.00000000       0.00000000       0.00000000       0.45272022
U        0.00000000       0.00000000       4.45050505       0.00000000       0.00000000      -0.45272022
2
Properties=species:S:1:pos:R:3:forces:R:3 energy=-11.836267442152854 pbc="F F F"
U        0.00000000       0.00000000       0.00000000       0.00000000       0.00000000       0.44967210
U        0.00000000       0.00000000       4.51010101       0.00000000       0.00000000      -0.44967210
2
Properties=species:S:1:pos:R:3:forces:R:3 energy=-11.809659075964136 pbc="F F F"
U        0.00000000       0.00000000       0.00000000       0.00000000       0.00000000       0.44253966
U        0.00000000       0.00000000       4.56969697       0.00000000       0.00000000      -0.44253966
2
Properties=species:S:1:pos:R:3:forces:R:3 energy=-11.783591946113994 pbc="F F F"
U        0.00000000       0.00000000       0.00000000       0.00000000       0.00000000       0.43164667
U        0.00000000       0.00000000       4.62929293       0.00000000       0.00000000      -0.43164667
2
Properties=species:S:1:pos:R:3:forces:R:3 energy=-11.758277359491762 pbc="F F F"
U        0.00000000       0.00000000       0.00000000       0.00000000       0.00000000       0.41747078
U        0.00000000       0.00000000       4.68888889       0.00000000       0.00000000      -0.41747078
2
Properties=species:S:1:pos:R:3:forces:R:3 energy=-11.733889008208243 pbc="F F F"
U        0.00000000       0.00000000       0.00000000       0.00000000       0.00000000       0.40062505
U        0.00000000       0.00000000       4.74848485       0.00000000       0.00000000      -0.40062505
2
Properties=species:S:1:pos:R:3:forces:R:3 energy=-11.710561965236225 pbc="F F F"
U        0.00000000       0.00000000       0.00000000       0.00000000       0.00000000       0.38187903
U        0.00000000       0.00000000       4.80808081       0.00000000       0.00000000      -0.38187903
2
Properties=species:S:1:pos:R:3:forces:R:3 energy=-11.688391933476803 pbc="F F F"
U        0.00000000       0.00000000       0.00000000       0.00000000       0.00000000       0.36211172
U        0.00000000       0.00000000       4.86767677       0.00000000       0.00000000      -0.36211172
2
Properties=species:S:1:pos:R:3:forces:R:3 energy=-11.667404582461412 pbc="F F F"
U        0.00000000       0.00000000       0.00000000       0.00000000       0.00000000       0.34220207
U        0.00000000       0.00000000       4.92727273       0.00000000       0.00000000      -0.34220207
2
Properties=species:S:1:pos:R:3:forces:R:3 energy=-11.647588036635046 pbc="F F F"
U        0.00000000       0.00000000       0.00000000       0.00000000       0.00000000       0.32284895
U        0.00000000       0.00000000       4.98686869       0.00000000       0.00000000      -0.32284895
2
Properties=species:S:1:pos:R:3:forces:R:3 energy=-11.628906195118455 pbc="F F F"
U        0.00000000       0.00000000       0.00000000       0.00000000       0.00000000       0.30442634
U        0.00000000       0.00000000       5.04646465       0.00000000       0.00000000      -0.30442634
2
Properties=species:S:1:pos:R:3:forces:R:3 energy=-11.611291026285889 pbc="F F F"
U        0.00000000       0.00000000       0.00000000       0.00000000       0.00000000       0.28686532
U        0.00000000       0.00000000       5.10606061       0.00000000       0.00000000      -0.28686532
2
Properties=species:S:1:pos:R:3:forces:R:3 energy=-11.594705605304641 pbc="F F F"
U        0.00000000       0.00000000       0.00000000       0.00000000       0.00000000       0.26968670
U        0.00000000       0.00000000       5.16565657       0.00000000       0.00000000      -0.26968670
2
Properties=species:S:1:pos:R:3:forces:R:3 energy=-11.579147738762986 pbc="F F F"
U        0.00000000       0.00000000       0.00000000       0.00000000       0.00000000       0.25214994
U        0.00000000       0.00000000       5.22525253       0.00000000       0.00000000      -0.25214994
2
Properties=species:S:1:pos:R:3:forces:R:3 energy=-11.564674747531116 pbc="F F F"
U        0.00000000       0.00000000       0.00000000       0.00000000       0.00000000       0.23344123
U        0.00000000       0.00000000       5.28484848       0.00000000       0.00000000      -0.23344123
2
Properties=species:S:1:pos:R:3:forces:R:3 energy=-11.551363406104214 pbc="F F F"
U        0.00000000       0.00000000       0.00000000       0.00000000       0.00000000       0.21293589
U        0.00000000       0.00000000       5.34444444       0.00000000       0.00000000      -0.21293589
2
Properties=species:S:1:pos:R:3:forces:R:3 energy=-11.539332634381063 pbc="F F F"
U        0.00000000       0.00000000       0.00000000       0.00000000       0.00000000       0.19039685
U        0.00000000       0.00000000       5.40404040       0.00000000       0.00000000      -0.19039685
2
Properties=species:S:1:pos:R:3:forces:R:3 energy=-11.528703449678414 pbc="F F F"
U        0.00000000       0.00000000       0.00000000       0.00000000       0.00000000       0.16607478
U        0.00000000       0.00000000       5.46363636       0.00000000       0.00000000      -0.16607478
2
Properties=species:S:1:pos:R:3:forces:R:3 energy=-11.519558792032443 pbc="F F F"
U        0.00000000       0.00000000       0.00000000       0.00000000       0.00000000       0.14075404
U        0.00000000       0.00000000       5.52323232       0.00000000       0.00000000      -0.14075404
2
Properties=species:S:1:pos:R:3:forces:R:3 energy=-11.511928233731478 pbc="F F F"
U        0.00000000       0.00000000       0.00000000       0.00000000       0.00000000       0.11562477
U        0.00000000       0.00000000       5.58282828       0.00000000       0.00000000      -0.11562477
2
Properties=species:S:1:pos:R:3:forces:R:3 energy=-11.505743882214242 pbc="F F F"
U        0.00000000       0.00000000       0.00000000       0.00000000       0.00000000       0.09212643
U        0.00000000       0.00000000       5.64242424       0.00000000       0.00000000      -0.09212643
2
Properties=species:S:1:pos:R:3:forces:R:3 energy=-11.500880510418876 pbc="F F F"
U        0.00000000       0.00000000       0.00000000       0.00000000       0.00000000       0.07166550
U        0.00000000       0.00000000       5.70202020       0.00000000       0.00000000      -0.07166550
2
Properties=species:S:1:pos:R:3:forces:R:3 energy=-11.497121110465953 pbc="F F F"
U        0.00000000       0.00000000       0.00000000       0.00000000       0.00000000       0.05539499
U        0.00000000       0.00000000       5.76161616       0.00000000       0.00000000      -0.05539499
2
Properties=species:S:1:pos:R:3:forces:R:3 energy=-11.494183425476939 pbc="F F F"
U        0.00000000       0.00000000       0.00000000       0.00000000       0.00000000       0.04388148
U        0.00000000       0.00000000       5.82121212       0.00000000       0.00000000      -0.04388148
2
Properties=species:S:1:pos:R:3:forces:R:3 energy=-11.491800165922724 pbc="F F F"
U        0.00000000       0.00000000       0.00000000       0.00000000       0.00000000       0.03702584
U        0.00000000       0.00000000       5.88080808       0.00000000       0.00000000      -0.03702584
2
Properties=species:S:1:pos:R:3:forces:R:3 energy=-11.489699742900147 pbc="F F F"
U        0.00000000       0.00000000       0.00000000       0.00000000       0.00000000       0.03388224
U        0.00000000       0.00000000       5.94040404       0.00000000       0.00000000      -0.03388224
2
Properties=species:S:1:pos:R:3:forces:R:3 energy=-11.487716960876956 pbc="F F F"
U        0.00000000       0.00000000       0.00000000       0.00000000       0.00000000       0.03283592
U        0.00000000       0.00000000       6.00000000       0.00000000       0.00000000      -0.03283592
