2
Properties=species:S:1:pos:R:3:forces:R:3 energy=1475.0231069960216 pbc="F F F"
U        0.00000000       0.00000000       0.00000000       0.00000000       0.00000000   -3457.64526367
U        0.00000000       0.00000000       0.18000000       0.00000000       0.00000000    3457.64526367
2
Properties=species:S:1:pos:R:3:forces:R:3 energy=1251.6570181288341 pbc="F F F"
U        0.00000000       0.00000000       0.00000000       0.00000000       0.00000000   -4089.33740234
U        0.00000000       0.00000000       0.23878788       0.00000000       0.00000000    4089.33740234
2
Properties=species:S:1:pos:R:3:forces:R:3 energy=1001.0349478163342 pbc="F F F"
U        0.00000000       0.00000000       0.00000000       0.00000000       0.00000000   -4373.11865234
U        0.00000000       0.00000000       0.29757576       0.00000000       0.00000000    4373.11865234
2
Properties=species:S:1:pos:R:3:forces:R:3 energy=-26813.66292816023 pbc="F F F"
U        0.00000000       0.00000000       0.00000000       0.00000000       0.00000000 -2177175.50000000
U        0.00000000       0.00000000       0.35636364       0.00000000       0.00000000 2177175.50000000
2
Properties=species:S:1:pos:R:3:forces:R:3 energy=-76917.79183441022 pbc="F F F"
U        0.00000000       0.00000000       0.00000000       0.00000000       0.00000000 -369403.50000000
U        0.00000000       0.00000000       0.41515152       0.00000000       0.00000000  369403.50000000
2
Properties=species:S:1:pos:R:3:forces:R:3 energy=-34301.97933441023 pbc="F F F"
U        0.00000000       0.00000000       0.00000000       0.00000000       0.00000000 1194409.50000000
U        0.00000000       0.00000000       0.47393939       0.00000000       0.00000000 -1194409.50000000
2
Properties=species:S:1:pos:R:3:forces:R:3 energy=13411.176915615115 pbc="F F F"
U        0.00000000       0.00000000       0.00000000       0.00000000       0.00000000  205292.71875000
U        0.00000000       0.00000000       0.53272727       0.00000000       0.00000000 -205292.71875000
2
Properties=species:S:1:pos:R:3:forces:R:3 energy=11420.135900015457 pbc="F F F"
U        0.00000000       0.00000000       0.00000000       0.00000000       0.00000000 -114714.28906250
U        0.00000000       0.00000000       0.59151515       0.00000000       0.00000000  114714.28906250
2
Properties=species:S:1:pos:R:3:forces:R:3 energy=5995.69937661597 pbc="F F F"
U        0.00000000       0.00000000       0.00000000       0.00000000       0.00000000  -63300.68359375
U        0.00000000       0.00000000       0.65030303       0.00000000       0.00000000   63300.68359375
2
Properties=species:S:1:pos:R:3:forces:R:3 energy=3333.588780976202 pbc="F F F"
U        0.00000000       0.00000000       0.00000000       0.00000000       0.00000000  -29942.68164062
U        0.00000000       0.00000000       0.70909091       0.00000000       0.00000000   29942.68164062
2
Properties=species:S:1:pos:R:3:forces:R:3 energy=1900.2594353744475 pbc="F F F"
U        0.00000000       0.00000000       0.00000000       0.00000000       0.00000000  -17432.33789062
U        0.00000000       0.00000000       0.76787879       0.00000000       0.00000000   17432.33789062
2
Properties=species:S:1:pos:R:3:forces:R:3 energy=1140.441076151503 pbc="F F F"
U        0.00000000       0.00000000       0.00000000       0.00000000       0.00000000  -10132.91503906
U        0.00000000       0.00000000       0.82666667       0.00000000       0.00000000   10132.91503906
2
Properties=species:S:1:pos:R:3:forces:R:3 energy=605.2298947262898 pbc="F F F"
U        0.00000000       0.00000000       0.00000000       0.00000000       0.00000000   -7347.77685547
U        0.00000000       0.00000000       0.88545455       0.00000000       0.00000000    7347.77685547
2
Properties=species:S:1:pos:R:3:forces:R:3 energy=269.1028808575732 pbc="F F F"
U        0.00000000       0.00000000       0.00000000       0.00000000       0.00000000   -4178.62207031
U        0.00000000       0.00000000       0.94424242       0.00000000       0.00000000    4178.62207031
2
Properties=species:S:1:pos:R:3:forces:R:3 energy=97.92839701012477 pbc="F F F"
U        0.00000000       0.00000000       0.00000000       0.00000000       0.00000000   -1826.05456543
U        0.00000000       0.00000000       1.00303030       0.00000000       0.00000000    1826.05456543
2
Properties=species:S:1:pos:R:3:forces:R:3 energy=31.147227663632755 pbc="F F F"
U        0.00000000       0.00000000       0.00000000       0.00000000       0.00000000    -639.27233887
U        0.00000000       0.00000000       1.06181818       0.00000000       0.00000000     639.27233887
2
Properties=species:S:1:pos:R:3:forces:R:3 energy=9.652408744782925 pbc="F F F"
U        0.00000000       0.00000000       0.00000000       0.00000000       0.00000000    -149.42950439
U        0.00000000       0.00000000       1.12060606       0.00000000       0.00000000     149.42950439
2
Properties=species:S:1:pos:R:3:forces:R:3 energy=3.400403177039139 pbc="F F F"
U        0.00000000       0.00000000       0.00000000       0.00000000       0.00000000     -92.27443695
U        0.00000000       0.00000000       1.17939394       0.00000000       0.00000000      92.27443695
2
Properties=species:S:1:pos:R:3:forces:R:3 energy=1.3437199248068663 pbc="F F F"
U        0.00000000       0.00000000       0.00000000       0.00000000       0.00000000       8.82415867
U        0.00000000       0.00000000       1.23818182       0.00000000       0.00000000      -8.82415867
2
Properties=species:S:1:pos:R:3:forces:R:3 energy=0.9614945394056367 pbc="F F F"
U        0.00000000       0.00000000       0.00000000       0.00000000       0.00000000     -19.41138077
U        0.00000000       0.00000000       1.29696970       0.00000000       0.00000000      19.41138077
2
Properties=species:S:1:pos:R:3:forces:R:3 energy=-0.13668042737881225 pbc="F F F"
U        0.00000000       0.00000000       0.00000000       0.00000000       0.00000000     -13.32383442
U        0.00000000       0.00000000       1.35575758       0.00000000       0.00000000      13.32383442
2
Properties=species:S:1:pos:R:3:forces:R:3 energy=-0.7907344802072253 pbc="F F F"
U        0.00000000       0.00000000       0.00000000       0.00000000       0.00000000     -11.44902611
U        0.00000000       0.00000000       1.41454545       0.00000000       0.00000000      11.44902611
2
Properties=species:S:1:pos:R:3:forces:R:3 energy=-1.4449004710544104 pbc="F F F"
U        0.00000000       0.00000000       0.00000000       0.00000000       0.00000000      -7.56867266
U        0.00000000       0.00000000       1.47333333       0.00000000       0.00000000       7.56867266
2
Properties=species:S:1:pos:R:3:forces:R:3 energy=-1.6852683610981067 pbc="F F F"
U        0.00000000       0.00000000       0.00000000       0.00000000       0.00000000      -3.48171544
U        0.00000000       0.00000000       1.53212121       0.00000000       0.00000000       3.48171544
2
Properties=species:S:1:pos:R:3:forces:R:3 energy=-1.9878798174486707 pbc="F F F"
U        0.00000000       0.00000000       0.00000000       0.00000000       0.00000000      -6.99491072
U        0.00000000       0.00000000       1.59090909       0.00000000       0.00000000       6.99491072
2
Properties=species:S:1:pos:R:3:forces:R:3 energy=-2.5069285788957556 pbc="F F F"
U        0.00000000       0.00000000       0.00000000       0.00000000       0.00000000     -10.38159084
U        0.00000000       0.00000000       1.64969697       0.00000000       0.00000000      10.38159084
2
Properties=species:S:1:pos:R:3:forces:R:3 energy=-3.287479381517494 pbc="F F F"
U        0.00000000       0.00000000       0.00000000       0.00000000       0.00000000     -16.79649925
U        0.00000000       0.00000000       1.70848485       0.00000000       0.00000000      16.79649925
2
Properties=species:S:1:pos:R:3:forces:R:3 energy=-4.4365629037748295 pbc="F F F"
U        0.00000000       0.00000000       0.00000000       0.00000000       0.00000000     -21.78794479
U        0.00000000       0.00000000       1.76727273       0.00000000       0.00000000      21.78794479
2
Properties=species:S:1:pos:R:3:forces:R:3 energy=-5.819207311603513 pbc="F F F"
U        0.00000000       0.00000000       0.00000000       0.00000000       0.00000000     -24.94965744
U        0.00000000       0.00000000       1.82606061       0.00000000       0.00000000      24.94965744
2
Properties=species:S:1:pos:R:3:forces:R:3 energy=-7.314986186270546 pbc="F F F"
U        0.00000000       0.00000000       0.00000000       0.00000000       0.00000000     -25.66822052
U        0.00000000       0.00000000       1.88484848       0.00000000       0.00000000      25.66822052
2
Properties=species:S:1:pos:R:3:forces:R:3 energy=-8.810772494246836 pbc="F F F"
U        0.00000000       0.00000000       0.00000000       0.00000000       0.00000000     -24.81837273
U        0.00000000       0.00000000       1.94363636       0.00000000       0.00000000      24.81837273
2
Properties=species:S:1:pos:R:3:forces:R:3 energy=-10.190759351831614 pbc="F F F"
U        0.00000000       0.00000000       0.00000000       0.00000000       0.00000000     -21.81647110
U        0.00000000       0.00000000       2.00242424       0.00000000       0.00000000      21.81647110
2
Properties=species:S:1:pos:R:3:forces:R:3 energy=-11.363157158623332 pbc="F F F"
U        0.00000000       0.00000000       0.00000000       0.00000000       0.00000000     -18.07100105
U        0.00000000       0.00000000       2.06121212       0.00000000       0.00000000      18.07100105
2
Properties=species:S:1:pos:R:3:forces:R:3 energy=-12.299206569811648 pbc="F F F"
U        0.00000000       0.00000000       0.00000000       0.00000000       0.00000000     -13.64224911
U        0.00000000       0.00000000       2.12000000       0.00000000       0.00000000      13.64224911
2
Properties=species:S:1:pos:R:3:forces:R:3 energy=-12.976203920439943 pbc="F F F"
U        0.00000000       0.00000000       0.00000000       0.00000000       0.00000000      -9.56682587
U        0.00000000       0.00000000       2.17878788       0.00000000       0.00000000       9.56682587
2
Properties=species:S:1:pos:R:3:forces:R:3 energy=-13.430648794810084 pbc="F F F"
U        0.00000000       0.00000000       0.00000000       0.00000000       0.00000000      -5.91097593
U        0.00000000       0.00000000       2.23757576       0.00000000       0.00000000       5.91097593
2
Properties=species:S:1:pos:R:3:forces:R:3 energy=-13.68879527664475 pbc="F F F"
U        0.00000000       0.00000000       0.00000000       0.00000000       0.00000000      -3.06972528
U        0.00000000       0.00000000       2.29636364       0.00000000       0.00000000       3.06972528
2
Properties=species:S:1:pos:R:3:forces:R:3 energy=-13.806386063889372 pbc="F F F"
U        0.00000000       0.00000000       0.00000000       0.00000000       0.00000000      -1.00724781
U        0.00000000       0.00000000       2.35515152       0.00000000       0.00000000       1.00724781
2
Properties=species:S:1:pos:R:3:forces:R:3 energy=-13.817355078166335 pbc="F F F"
U        0.00000000       0.00000000       0.00000000       0.00000000       0.00000000       0.54223740
U        0.00000000       0.00000000       2.41393939       0.00000000       0.00000000      -0.54223740
2
Properties=species:S:1:pos:R:3:forces:R:3 energy=-13.75272660610125 pbc="F F F"
U        0.00000000       0.00000000       0.00000000       0.00000000       0.00000000       1.57150245
U        0.00000000       0.00000000       2.47272727       0.00000000       0.00000000      -1.57150245
2
Properties=species:S:1:pos:R:3:forces:R:3 energy=-13.641473504837409 pbc="F F F"
U        0.00000000       0.00000000       0.00000000       0.00000000       0.00000000       2.15365148
U        0.00000000       0.00000000       2.53151515       0.00000000       0.00000000      -2.15365148
2
Properties=species:S:1:pos:R:3:forces:R:3 energy=-13.505976669916343 pbc="F F F"
U        0.00000000       0.00000000       0.00000000       0.00000000       0.00000000       2.39898801
U        0.00000000       0.00000000       2.59030303       0.00000000       0.00000000      -2.39898801
2
Properties=species:S:1:pos:R:3:forces:R:3 energy=-13.365405123152245 pbc="F F F"
U        0.00000000       0.00000000       0.00000000       0.00000000       0.00000000       2.34771228
U        0.00000000       0.00000000       2.64909091       0.00000000       0.00000000      -2.34771228
2
Properties=species:S:1:pos:R:3:forces:R:3 energy=-13.231836110716735 pbc="F F F"
U        0.00000000       0.00000000       0.00000000       0.00000000       0.00000000       2.19574428
U        0.00000000       0.00000000       2.70787879       0.00000000       0.00000000      -2.19574428
2
Properties=species:S:1:pos:R:3:forces:R:3 energy=-13.106585643137683 pbc="F F F"
U        0.00000000       0.00000000       0.00000000       0.00000000       0.00000000       2.07177758
U        0.00000000       0.00000000       2.76666667       0.00000000       0.00000000      -2.07177758
2
Properties=species:S:1:pos:R:3:forces:R:3 energy=-12.98784835490536 pbc="F F F"
U        0.00000000       0.00000000       0.00000000       0.00000000       0.00000000       1.96762133
U        0.00000000       0.00000000       2.82545455       0.00000000       0.00000000      -1.96762133
2
Properties=species:S:1:pos:R:3:forces:R:3 energy=-12.875574303486905 pbc="F F F"
U        0.00000000       0.00000000       0.00000000       0.00000000       0.00000000       1.84735131
U        0.00000000       0.00000000       2.88424242       0.00000000       0.00000000      -1.84735131
2
Properties=species:S:1:pos:R:3:forces:R:3 energy=-12.771225069455808 pbc="F F F"
U        0.00000000       0.00000000       0.00000000       0.00000000       0.00000000       1.69866645
U        0.00000000       0.00000000       2.94303030       0.00000000       0.00000000      -1.69866645
2
Properties=species:S:1:pos:R:3:forces:R:3 energy=-12.676044057379002 pbc="F F F"
U        0.00000000       0.00000000       0.00000000       0.00000000       0.00000000       1.54012883
U        0.00000000       0.00000000       3.00181818       0.00000000       0.00000000      -1.54012883
2
Properties=species:S:1:pos:R:3:forces:R:3 energy=-12.589967555130674 pbc="F F F"
U        0.00000000       0.00000000       0.00000000       0.00000000       0.00000000       1.38919210
U        0.00000000       0.00000000       3.06060606       0.00000000       0.00000000      -1.38919210
2
Properties=species:S:1:pos:R:3:forces:R:3 energy=-12.512807210689196 pbc="F F F"
U        0.00000000       0.00000000       0.00000000       0.00000000       0.00000000       1.23341286
U        0.00000000       0.00000000       3.11939394       0.00000000       0.00000000      -1.23341286
2
Properties=species:S:1:pos:R:3:forces:R:3 energy=-12.445238358838816 pbc="F F F"
U        0.00000000       0.00000000       0.00000000       0.00000000       0.00000000       1.06391597
U        0.00000000       0.00000000       3.17818182       0.00000000       0.00000000      -1.06391597
2
Properties=species:S:1:pos:R:3:forces:R:3 energy=-12.38768093971631 pbc="F F F"
U        0.00000000       0.00000000       0.00000000       0.00000000       0.00000000       0.89628041
U        0.00000000       0.00000000       3.23696970       0.00000000       0.00000000      -0.89628041
2
Properties=species:S:1:pos:R:3:forces:R:3 energy=-12.339480473298908 pbc="F F F"
U        0.00000000       0.00000000       0.00000000       0.00000000       0.00000000       0.74755418
U        0.00000000       0.00000000       3.29575758       0.00000000       0.00000000      -0.74755418
2
Properties=species:S:1:pos:R:3:forces:R:3 energy=-12.299289538474468 pbc="F F F"
U        0.00000000       0.00000000       0.00000000       0.00000000       0.00000000       0.62381798
U        0.00000000       0.00000000       3.35454545       0.00000000       0.00000000      -0.62381798
2
Properties=species:S:1:pos:R:3:forces:R:3 energy=-12.265672621297663 pbc="F F F"
U        0.00000000       0.00000000       0.00000000       0.00000000       0.00000000       0.52368635
U        0.00000000       0.00000000       3.41333333       0.00000000       0.00000000      -0.52368635
2
Properties=species:S:1:pos:R:3:forces:R:3 energy=-12.23730086729113 pbc="F F F"
U        0.00000000       0.00000000       0.00000000       0.00000000       0.00000000       0.44495514
U        0.00000000       0.00000000       3.47212121       0.00000000       0.00000000      -0.44495514
2
Properties=species:S:1:pos:R:3:forces:R:3 energy=-12.21293516873357 pbc="F F F"
U        0.00000000       0.00000000       0.00000000       0.00000000       0.00000000       0.38746125
U        0.00000000       0.00000000       3.53090909       0.00000000       0.00000000      -0.38746125
2
Properties=species:S:1:pos:R:3:forces:R:3 energy=-12.191341734468338 pbc="F F F"
U        0.00000000       0.00000000       0.00000000       0.00000000       0.00000000       0.35048178
U        0.00000000       0.00000000       3.58969697       0.00000000       0.00000000      -0.35048178
2
Properties=species:S:1:pos:R:3:forces:R:3 energy=-12.171395834335655 pbc="F F F"
U        0.00000000       0.00000000       0.00000000       0.00000000       0.00000000       0.33056670
U        0.00000000       0.00000000       3.64848485       0.00000000       0.00000000      -0.33056670
2
Properties=species:S:1:pos:R:3:forces:R:3 energy=-12.15223477052956 pbc="F F F"
U        0.00000000       0.00000000       0.00000000       0.00000000       0.00000000       0.32281646
U        0.00000000       0.00000000       3.70727273       0.00000000       0.00000000      -0.32281646
2
Properties=species:S:1:pos:R:3:forces:R:3 energy=-12.133281934867723 pbc="F F F"
U        0.00000000       0.00000000       0.00000000       0.00000000       0.00000000       0.32316020
U        0.00000000       0.00000000       3.76606061       0.00000000       0.00000000      -0.32316020
2
Properties=species:S:1:pos:R:3:forces:R:3 energy=-12.114131262143697 pbc="F F F"
U        0.00000000       0.00000000       0.00000000       0.00000000       0.00000000       0.32918647
U        0.00000000       0.00000000       3.82484848       0.00000000       0.00000000      -0.32918647
2
Properties=species:S:1:pos:R:3:forces:R:3 energy=-12.094489296748112 pbc="F F F"
U        0.00000000       0.00000000       0.00000000       0.00000000       0.00000000       0.33957398
U        0.00000000       0.00000000       3.88363636       0.00000000       0.00000000      -0.33957398
2
Properties=species:S:1:pos:R:3:forces:R:3 energy=-12.074140911078416 pbc="F F F"
U        0.00000000       0.00000000       0.00000000       0.00000000       0.00000000       0.35324994
U        0.00000000       0.00000000       3.94242424       0.00000000       0.00000000      -0.35324994
2
Properties=species:S:1:pos:R:3:forces:R:3 energy=-12.052920429212344 pbc="F F F"
U        0.00000000       0.00000000       0.00000000       0.00000000       0.00000000       0.36899590
U        0.00000000       0.00000000       4.00121212       0.00000000       0.00000000      -0.36899590
2
Properties=species:S:1:pos:R:3:forces:R:3 energy=-12.030736688537198 pbc="F F F"
U        0.00000000       0.00000000       0.00000000       0.00000000       0.00000000       0.38554749
U        0.00000000       0.00000000       4.06000000       0.00000000       0.00000000      -0.38554749
2
Properties=species:S:1:pos:R:3:forces:R:3 energy=-12.007593919214491 pbc="F F F"
U        0.00000000       0.00000000       0.00000000       0.00000000       0.00000000       0.40183288
U        0.00000000       0.00000000       4.11878788       0.00000000       0.00000000      -0.40183288
2
Properties=species:S:1:pos:R:3:forces:R:3 energy=-11.98351752231003 pbc="F F F"
U        0.00000000       0.00000000       0.00000000       0.00000000       0.00000000       0.41701943
U        0.00000000       0.00000000       4.17757576       0.00000000       0.00000000      -0.41701943
2
Properties=species:S:1:pos:R:3:forces:R:3 energy=-11.95859407343005 pbc="F F F"
U        0.00000000       0.00000000       0.00000000       0.00000000       0.00000000       0.43037641
U        0.00000000       0.00000000       4.23636364       0.00000000       0.00000000      -0.43037641
2
Properties=species:S:1:pos:R:3:forces:R:3 energy=-11.932963737676179 pbc="F F F"
U        0.00000000       0.00000000       0.00000000       0.00000000       0.00000000       0.44117671
U        0.00000000       0.00000000       4.29515152       0.00000000       0.00000000      -0.44117671
2
Properties=species:S:1:pos:R:3:forces:R:3 energy=-11.906788912434614 pbc="F F F"
U        0.00000000       0.00000000       0.00000000       0.00000000       0.00000000       0.44872108
U        0.00000000       0.00000000       4.35393939       0.00000000       0.00000000      -0.44872108
2
Properties=species:S:1:pos:R:3:forces:R:3 energy=-11.880278946880601 pbc="F F F"
U        0.00000000       0.00000000       0.00000000       0.00000000       0.00000000       0.45246449
U        0.00000000       0.00000000       4.41272727       0.00000000       0.00000000      -0.45246449
2
Properties=species:S:1:pos:R:3:forces:R:3 energy=-11.853669294192015 pbc="F F F"
U        0.00000000       0.00000000       0.00000000       0.00000000       0.00000000       0.45212778
U        0.00000000       0.00000000       4.47151515       0.00000000       0.00000000      -0.45212778
2
Properties=species:S:1:pos:R:3:forces:R:3 energy=-11.827199596047002 pbc="F F F"
U        0.00000000       0.00000000       0.00000000       0.00000000       0.00000000       0.44769952
U        0.00000000       0.00000000       4.53030303       0.00000000       0.00000000      -0.44769952
2
Properties=species:S:1:pos:R:3:forces:R:3 energy=-11.80110801126325 pbc="F F F"
U        0.00000000       0.00000000       0.00000000       0.00000000       0.00000000       0.43938637
U        0.00000000       0.00000000       4.58909091       0.00000000       0.00000000      -0.43938637
2
Properties=species:S:1:pos:R:3:forces:R:3 energy=-11.775607367604424 pbc="F F F"
U        0.00000000       0.00000000       0.00000000       0.00000000       0.00000000       0.42755380
U        0.00000000       0.00000000       4.64787879       0.00000000       0.00000000      -0.42755380
2
Properties=species:S:1:pos:R:3:forces:R:3 energy=-11.750894812564933 pbc="F F F"
U        0.00000000       0.00000000       0.00000000       0.00000000       0.00000000       0.41269055
U        0.00000000       0.00000000       4.70666667       0.00000000       0.00000000      -0.41269055
2
Properties=species:S:1:pos:R:3:forces:R:3 energy=-11.72713171018155 pbc="F F F"
U        0.00000000       0.00000000       0.00000000       0.00000000       0.00000000       0.39544427
U        0.00000000       0.00000000       4.76545455       0.00000000       0.00000000      -0.39544427
2
Properties=species:S:1:pos:R:3:forces:R:3 energy=-11.704434231003138 pbc="F F F"
U        0.00000000       0.00000000       0.00000000       0.00000000       0.00000000       0.37658101
U        0.00000000       0.00000000       4.82424242       0.00000000       0.00000000      -0.37658101
2
Properties=species:S:1:pos:R:3:forces:R:3 energy=-11.682869518386445 pbc="F F F"
U        0.00000000       0.00000000       0.00000000       0.00000000       0.00000000       0.35696295
U        0.00000000       0.00000000       4.88303030       0.00000000       0.00000000      -0.35696295
2
Properties=species:S:1:pos:R:3:forces:R:3 energy=-11.662461372528146 pbc="F F F"
U        0.00000000       0.00000000       0.00000000       0.00000000       0.00000000       0.33740652
U        0.00000000       0.00000000       4.94181818       0.00000000       0.00000000      -0.33740652
2
Properties=species:S:1:pos:R:3:forces:R:3 energy=-11.643182614734657 pbc="F F F"
U        0.00000000       0.00000000       0.00000000       0.00000000       0.00000000       0.31851667
U        0.00000000       0.00000000       5.00060606       0.00000000       0.00000000      -0.31851667
2
Properties=species:S:1:pos:R:3:forces:R:3 energy=-11.624993335765113 pbc="F F F"
U        0.00000000       0.00000000       0.00000000       0.00000000       0.00000000       0.30055240
U        0.00000000       0.00000000       5.05939394       0.00000000       0.00000000      -0.30055240
2
Properties=species:S:1:pos:R:3:forces:R:3 energy=-11.607831181690146 pbc="F F F"
U        0.00000000       0.00000000       0.00000000       0.00000000       0.00000000       0.28336141
U        0.00000000       0.00000000       5.11818182       0.00000000       0.00000000      -0.28336141
2
Properties=species:S:1:pos:R:3:forces:R:3 energy=-11.591672439733308 pbc="F F F"
U        0.00000000       0.00000000       0.00000000       0.00000000       0.00000000       0.26641065
U        0.00000000       0.00000000       5.17696970       0.00000000       0.00000000      -0.26641065
2
Properties=species:S:1:pos:R:3:forces:R:3 energy=-11.57652048647331 pbc="F F F"
U        0.00000000       0.00000000       0.00000000       0.00000000       0.00000000       0.24895906
U        0.00000000       0.00000000       5.23575758       0.00000000       0.00000000      -0.24895906
2
Properties=species:S:1:pos:R:3:forces:R:3 energy=-11.562426775014623 pbc="F F F"
U        0.00000000       0.00000000       0.00000000       0.00000000       0.00000000       0.23024103
U        0.00000000       0.00000000       5.29454545       0.00000000       0.00000000      -0.23024103
2
Properties=species:S:1:pos:R:3:forces:R:3 energy=-11.549485036913866 pbc="F F F"
U        0.00000000       0.00000000       0.00000000       0.00000000       0.00000000       0.20970568
U        0.00000000       0.00000000       5.35333333       0.00000000       0.00000000      -0.20970568
2
Properties=species:S:1:pos:R:3:forces:R:3 energy=-11.537808254612019 pbc="F F F"
U        0.00000000       0.00000000       0.00000000       0.00000000       0.00000000       0.18719067
U        0.00000000       0.00000000       5.41212121       0.00000000       0.00000000      -0.18719067
2
Properties=species:S:1:pos:R:3:forces:R:3 energy=-11.52750764892125 pbc="F F F"
U        0.00000000       0.00000000       0.00000000       0.00000000       0.00000000       0.16302329
U        0.00000000       0.00000000       5.47090909       0.00000000       0.00000000      -0.16302329
2
Properties=species:S:1:pos:R:3:forces:R:3 energy=-11.51865830240001 pbc="F F F"
U        0.00000000       0.00000000       0.00000000       0.00000000       0.00000000       0.13799569
U        0.00000000       0.00000000       5.52969697       0.00000000       0.00000000      -0.13799569
2
Properties=species:S:1:pos:R:3:forces:R:3 energy=-11.511276062093183 pbc="F F F"
U        0.00000000       0.00000000       0.00000000       0.00000000       0.00000000       0.11330289
U        0.00000000       0.00000000       5.58848485       0.00000000       0.00000000      -0.11330289
2
Properties=species:S:1:pos:R:3:forces:R:3 energy=-11.505302413791549 pbc="F F F"
U        0.00000000       0.00000000       0.00000000       0.00000000       0.00000000       0.09032531
U        0.00000000       0.00000000       5.64727273       0.00000000       0.00000000      -0.09032531
2
Properties=species:S:1:pos:R:3:forces:R:3 energy=-11.500596548526328 pbc="F F F"
U        0.00000000       0.00000000       0.00000000       0.00000000       0.00000000       0.07042643
U        0.00000000       0.00000000       5.70606061       0.00000000       0.00000000      -0.07042643
2
Properties=species:S:1:pos:R:3:forces:R:3 energy=-11.49693732060297 pbc="F F F"
U        0.00000000       0.00000000       0.00000000       0.00000000       0.00000000       0.05463519
U        0.00000000       0.00000000       5.76484848       0.00000000       0.00000000      -0.05463519
2
Properties=species:S:1:pos:R:3:forces:R:3 energy=-11.494076666034156 pbc="F F F"
U        0.00000000       0.00000000       0.00000000       0.00000000       0.00000000       0.04351515
U        0.00000000       0.00000000       5.82363636       0.00000000       0.00000000      -0.04351515
2
Properties=species:S:1:pos:R:3:forces:R:3 energy=-11.491737441765396 pbc="F F F"
U        0.00000000       0.00000000       0.00000000       0.00000000       0.00000000       0.03689348
U        0.00000000       0.00000000       5.88242424       0.00000000       0.00000000      -0.03689348
2
Properties=species:S:1:pos:R:3:forces:R:3 energy=-11.489672664356426 pbc="F F F"
U        0.00000000       0.00000000       0.00000000       0.00000000       0.00000000       0.03385913
U        0.00000000       0.00000000       5.94121212       0.00000000       0.00000000      -0.03385913
2
Properties=species:S:1:pos:R:3:forces:R:3 energy=-11.487716960876956 pbc="F F F"
U        0.00000000       0.00000000       0.00000000       0.00000000       0.00000000       0.03283592
U        0.00000000       0.00000000       6.00000000       0.00000000       0.00000000      -0.03283592
