2
Properties=species:S:1:pos:R:3:forces:R:3 energy=35292745727.95745 pbc="F F F"
W        0.00000000       0.00000000       0.00000000       0.00000000       0.00000000 -403741802496.00000000
W        0.00000000       0.00000000       0.18000000       0.00000000       0.00000000 403741802496.00000000
2
Properties=species:S:1:pos:R:3:forces:R:3 energy=15615039487.957453 pbc="F F F"
W        0.00000000       0.00000000       0.00000000       0.00000000       0.00000000 -257789493248.00000000
W        0.00000000       0.00000000       0.23878788       0.00000000       0.00000000 257789493248.00000000
2
Properties=species:S:1:pos:R:3:forces:R:3 energy=4908405759.957454 pbc="F F F"
W        0.00000000       0.00000000       0.00000000       0.00000000       0.00000000 -113906229248.00000000
W        0.00000000       0.00000000       0.29757576       0.00000000       0.00000000 113906229248.00000000
2
Properties=species:S:1:pos:R:3:forces:R:3 energy=980721727.9574534 pbc="F F F"
W        0.00000000       0.00000000       0.00000000       0.00000000       0.00000000 -30733584384.00000000
W        0.00000000       0.00000000       0.35636364       0.00000000       0.00000000 30733584384.00000000
2
Properties=species:S:1:pos:R:3:forces:R:3 energy=120837967.95745337 pbc="F F F"
W        0.00000000       0.00000000       0.00000000       0.00000000       0.00000000 -5000236544.00000000
W        0.00000000       0.00000000       0.41515152       0.00000000       0.00000000 5000236544.00000000
2
Properties=species:S:1:pos:R:3:forces:R:3 energy=8187578.957453367 pbc="F F F"
W        0.00000000       0.00000000       0.00000000       0.00000000       0.00000000 -379941856.00000000
W        0.00000000       0.00000000       0.47393939       0.00000000       0.00000000 379941856.00000000
2
Properties=species:S:1:pos:R:3:forces:R:3 energy=454902.5199533799 pbc="F F F"
W        0.00000000       0.00000000       0.00000000       0.00000000       0.00000000 -22865888.00000000
W        0.00000000       0.00000000       0.53272727       0.00000000       0.00000000 22865888.00000000
2
Properties=species:S:1:pos:R:3:forces:R:3 energy=44061.508234648885 pbc="F F F"
W        0.00000000       0.00000000       0.00000000       0.00000000       0.00000000 -1232362.50000000
W        0.00000000       0.00000000       0.59151515       0.00000000       0.00000000 1232362.50000000
2
Properties=species:S:1:pos:R:3:forces:R:3 energy=12763.973078430561 pbc="F F F"
W        0.00000000       0.00000000       0.00000000       0.00000000       0.00000000 -204613.79687500
W        0.00000000       0.00000000       0.65030303       0.00000000       0.00000000  204613.79687500
2
Properties=species:S:1:pos:R:3:forces:R:3 energy=6225.116144881161 pbc="F F F"
W        0.00000000       0.00000000       0.00000000       0.00000000       0.00000000  -67257.10937500
W        0.00000000       0.00000000       0.70909091       0.00000000       0.00000000   67257.10937500
2
Properties=species:S:1:pos:R:3:forces:R:3 energy=3265.212580500896 pbc="F F F"
W        0.00000000       0.00000000       0.00000000       0.00000000       0.00000000  -36429.24218750
W        0.00000000       0.00000000       0.76787879       0.00000000       0.00000000   36429.24218750
2
Properties=species:S:1:pos:R:3:forces:R:3 energy=1569.7639722101644 pbc="F F F"
W        0.00000000       0.00000000       0.00000000       0.00000000       0.00000000  -20239.24218750
W        0.00000000       0.00000000       0.82666667       0.00000000       0.00000000   20239.24218750
2
Properties=species:S:1:pos:R:3:forces:R:3 energy=663.6690016622628 pbc="F F F"
W        0.00000000       0.00000000       0.00000000       0.00000000       0.00000000  -10809.35644531
W        0.00000000       0.00000000       0.88545455       0.00000000       0.00000000   10809.35644531
2
Properties=species:S:1:pos:R:3:forces:R:3 energy=212.38610392845592 pbc="F F F"
W        0.00000000       0.00000000       0.00000000       0.00000000       0.00000000   -4898.56591797
W        0.00000000       0.00000000       0.94424242       0.00000000       0.00000000    4898.56591797
2
Properties=species:S:1:pos:R:3:forces:R:3 energy=34.74333536636791 pbc="F F F"
W        0.00000000       0.00000000       0.00000000       0.00000000       0.00000000   -1862.58496094
W        0.00000000       0.00000000       1.00303030       0.00000000       0.00000000    1862.58496094
2
Properties=species:S:1:pos:R:3:forces:R:3 energy=-4.208728748646655 pbc="F F F"
W        0.00000000       0.00000000       0.00000000       0.00000000       0.00000000     161.60342407
W        0.00000000       0.00000000       1.06181818       0.00000000       0.00000000    -161.60342407
2
Properties=species:S:1:pos:R:3:forces:R:3 energy=3.143742181496685 pbc="F F F"
W        0.00000000       0.00000000       0.00000000       0.00000000       0.00000000      84.68742371
W        0.00000000       0.00000000       1.12060606       0.00000000       0.00000000     -84.68742371
2
Properties=species:S:1:pos:R:3:forces:R:3 energy=6.139787037353105 pbc="F F F"
W        0.00000000       0.00000000       0.00000000       0.00000000       0.00000000      24.84806633
W        0.00000000       0.00000000       1.17939394       0.00000000       0.00000000     -24.84806633
2
Properties=species:S:1:pos:R:3:forces:R:3 energy=7.4104941137724065 pbc="F F F"
W        0.00000000       0.00000000       0.00000000       0.00000000       0.00000000      12.99334908
W        0.00000000       0.00000000       1.23818182       0.00000000       0.00000000     -12.99334908
2
Properties=species:S:1:pos:R:3:forces:R:3 energy=7.185327038710255 pbc="F F F"
W        0.00000000       0.00000000       0.00000000       0.00000000       0.00000000     -15.79166698
W        0.00000000       0.00000000       1.29696970       0.00000000       0.00000000      15.79166698
2
Properties=species:S:1:pos:R:3:forces:R:3 energy=6.227051747251216 pbc="F F F"
W        0.00000000       0.00000000       0.00000000       0.00000000       0.00000000     -15.45126152
W        0.00000000       0.00000000       1.35575758       0.00000000       0.00000000      15.45126152
2
Properties=species:S:1:pos:R:3:forces:R:3 energy=5.215306211687281 pbc="F F F"
W        0.00000000       0.00000000       0.00000000       0.00000000       0.00000000     -20.95782280
W        0.00000000       0.00000000       1.41454545       0.00000000       0.00000000      20.95782280
2
Properties=species:S:1:pos:R:3:forces:R:3 energy=3.6759789510393452 pbc="F F F"
W        0.00000000       0.00000000       0.00000000       0.00000000       0.00000000     -31.99306297
W        0.00000000       0.00000000       1.47333333       0.00000000       0.00000000      31.99306297
2
Properties=species:S:1:pos:R:3:forces:R:3 energy=1.4577657995078452 pbc="F F F"
W        0.00000000       0.00000000       0.00000000       0.00000000       0.00000000     -42.00559998
W        0.00000000       0.00000000       1.53212121       0.00000000       0.00000000      42.00559998
2
Properties=species:S:1:pos:R:3:forces:R:3 energy=-1.0800306176171353 pbc="F F F"
W        0.00000000       0.00000000       0.00000000       0.00000000       0.00000000     -43.61384201
W        0.00000000       0.00000000       1.59090909       0.00000000       0.00000000      43.61384201
2
Properties=species:S:1:pos:R:3:forces:R:3 energy=-3.6209934585478067 pbc="F F F"
W        0.00000000       0.00000000       0.00000000       0.00000000       0.00000000     -41.85665131
W        0.00000000       0.00000000       1.64969697       0.00000000       0.00000000      41.85665131
2
Properties=species:S:1:pos:R:3:forces:R:3 energy=-5.958722678968745 pbc="F F F"
W        0.00000000       0.00000000       0.00000000       0.00000000       0.00000000     -37.40652466
W        0.00000000       0.00000000       1.70848485       0.00000000       0.00000000      37.40652466
2
Properties=species:S:1:pos:R:3:forces:R:3 energy=-7.9589455989634 pbc="F F F"
W        0.00000000       0.00000000       0.00000000       0.00000000       0.00000000     -30.58303642
W        0.00000000       0.00000000       1.76727273       0.00000000       0.00000000      30.58303642
2
Properties=species:S:1:pos:R:3:forces:R:3 energy=-9.613511981607411 pbc="F F F"
W        0.00000000       0.00000000       0.00000000       0.00000000       0.00000000     -25.90002251
W        0.00000000       0.00000000       1.82606061       0.00000000       0.00000000      25.90002251
2
Properties=species:S:1:pos:R:3:forces:R:3 energy=-10.955766941667973 pbc="F F F"
W        0.00000000       0.00000000       0.00000000       0.00000000       0.00000000     -20.06167793
W        0.00000000       0.00000000       1.88484848       0.00000000       0.00000000      20.06167793
2
Properties=species:S:1:pos:R:3:forces:R:3 energy=-11.990750647907289 pbc="F F F"
W        0.00000000       0.00000000       0.00000000       0.00000000       0.00000000     -14.94984913
W        0.00000000       0.00000000       1.94363636       0.00000000       0.00000000      14.94984913
2
Properties=species:S:1:pos:R:3:forces:R:3 energy=-12.712256679741031 pbc="F F F"
W        0.00000000       0.00000000       0.00000000       0.00000000       0.00000000      -9.79442596
W        0.00000000       0.00000000       2.00242424       0.00000000       0.00000000       9.79442596
2
Properties=species:S:1:pos:R:3:forces:R:3 energy=-13.168008255949898 pbc="F F F"
W        0.00000000       0.00000000       0.00000000       0.00000000       0.00000000      -5.83261299
W        0.00000000       0.00000000       2.06121212       0.00000000       0.00000000       5.83261299
2
Properties=species:S:1:pos:R:3:forces:R:3 energy=-13.40364239940539 pbc="F F F"
W        0.00000000       0.00000000       0.00000000       0.00000000       0.00000000      -2.25322628
W        0.00000000       0.00000000       2.12000000       0.00000000       0.00000000       2.25322628
2
Properties=species:S:1:pos:R:3:forces:R:3 energy=-13.44955814402576 pbc="F F F"
W        0.00000000       0.00000000       0.00000000       0.00000000       0.00000000       0.52601391
W        0.00000000       0.00000000       2.17878788       0.00000000       0.00000000      -0.52601391
2
Properties=species:S:1:pos:R:3:forces:R:3 energy=-13.354711482717585 pbc="F F F"
W        0.00000000       0.00000000       0.00000000       0.00000000       0.00000000       2.62682772
W        0.00000000       0.00000000       2.23757576       0.00000000       0.00000000      -2.62682772
2
Properties=species:S:1:pos:R:3:forces:R:3 energy=-13.153516769419895 pbc="F F F"
W        0.00000000       0.00000000       0.00000000       0.00000000       0.00000000       4.08676624
W        0.00000000       0.00000000       2.29636364       0.00000000       0.00000000      -4.08676624
2
Properties=species:S:1:pos:R:3:forces:R:3 energy=-12.885379068338457 pbc="F F F"
W        0.00000000       0.00000000       0.00000000       0.00000000       0.00000000       4.97495985
W        0.00000000       0.00000000       2.35515152       0.00000000       0.00000000      -4.97495985
2
Properties=species:S:1:pos:R:3:forces:R:3 energy=-12.577838324542984 pbc="F F F"
W        0.00000000       0.00000000       0.00000000       0.00000000       0.00000000       5.38570976
W        0.00000000       0.00000000       2.41393939       0.00000000       0.00000000      -5.38570976
2
Properties=species:S:1:pos:R:3:forces:R:3 energy=-12.26371749557234 pbc="F F F"
W        0.00000000       0.00000000       0.00000000       0.00000000       0.00000000       5.21532249
W        0.00000000       0.00000000       2.47272727       0.00000000       0.00000000      -5.21532249
2
Properties=species:S:1:pos:R:3:forces:R:3 energy=-11.971452020953928 pbc="F F F"
W        0.00000000       0.00000000       0.00000000       0.00000000       0.00000000       4.70375633
W        0.00000000       0.00000000       2.53151515       0.00000000       0.00000000      -4.70375633
2
Properties=species:S:1:pos:R:3:forces:R:3 energy=-11.711509223698132 pbc="F F F"
W        0.00000000       0.00000000       0.00000000       0.00000000       0.00000000       4.13394260
W        0.00000000       0.00000000       2.59030303       0.00000000       0.00000000      -4.13394260
2
Properties=species:S:1:pos:R:3:forces:R:3 energy=-11.486167115036954 pbc="F F F"
W        0.00000000       0.00000000       0.00000000       0.00000000       0.00000000       3.53154993
W        0.00000000       0.00000000       2.64909091       0.00000000       0.00000000      -3.53154993
2
Properties=species:S:1:pos:R:3:forces:R:3 energy=-11.295372542997297 pbc="F F F"
W        0.00000000       0.00000000       0.00000000       0.00000000       0.00000000       2.97211504
W        0.00000000       0.00000000       2.70787879       0.00000000       0.00000000      -2.97211504
2
Properties=species:S:1:pos:R:3:forces:R:3 energy=-11.135306424172635 pbc="F F F"
W        0.00000000       0.00000000       0.00000000       0.00000000       0.00000000       2.48359132
W        0.00000000       0.00000000       2.76666667       0.00000000       0.00000000      -2.48359132
2
Properties=species:S:1:pos:R:3:forces:R:3 energy=-11.002255610820814 pbc="F F F"
W        0.00000000       0.00000000       0.00000000       0.00000000       0.00000000       2.05270123
W        0.00000000       0.00000000       2.82545455       0.00000000       0.00000000      -2.05270123
2
Properties=species:S:1:pos:R:3:forces:R:3 energy=-10.892616818310152 pbc="F F F"
W        0.00000000       0.00000000       0.00000000       0.00000000       0.00000000       1.69049358
W        0.00000000       0.00000000       2.88424242       0.00000000       0.00000000      -1.69049358
2
Properties=species:S:1:pos:R:3:forces:R:3 energy=-10.801775350400241 pbc="F F F"
W        0.00000000       0.00000000       0.00000000       0.00000000       0.00000000       1.41554260
W        0.00000000       0.00000000       2.94303030       0.00000000       0.00000000      -1.41554260
2
Properties=species:S:1:pos:R:3:forces:R:3 energy=-10.724419916027951 pbc="F F F"
W        0.00000000       0.00000000       0.00000000       0.00000000       0.00000000       1.22952640
W        0.00000000       0.00000000       3.00181818       0.00000000       0.00000000      -1.22952640
2
Properties=species:S:1:pos:R:3:forces:R:3 energy=-10.656015035330206 pbc="F F F"
W        0.00000000       0.00000000       0.00000000       0.00000000       0.00000000       1.10376954
W        0.00000000       0.00000000       3.06060606       0.00000000       0.00000000      -1.10376954
2
Properties=species:S:1:pos:R:3:forces:R:3 energy=-10.594335172891281 pbc="F F F"
W        0.00000000       0.00000000       0.00000000       0.00000000       0.00000000       0.99464208
W        0.00000000       0.00000000       3.11939394       0.00000000       0.00000000      -0.99464208
2
Properties=species:S:1:pos:R:3:forces:R:3 energy=-10.539159025743235 pbc="F F F"
W        0.00000000       0.00000000       0.00000000       0.00000000       0.00000000       0.88220340
W        0.00000000       0.00000000       3.17818182       0.00000000       0.00000000      -0.88220340
2
Properties=species:S:1:pos:R:3:forces:R:3 energy=-10.490506314944037 pbc="F F F"
W        0.00000000       0.00000000       0.00000000       0.00000000       0.00000000       0.77493006
W        0.00000000       0.00000000       3.23696970       0.00000000       0.00000000      -0.77493006
2
Properties=species:S:1:pos:R:3:forces:R:3 energy=-10.44777420336817 pbc="F F F"
W        0.00000000       0.00000000       0.00000000       0.00000000       0.00000000       0.68119198
W        0.00000000       0.00000000       3.29575758       0.00000000       0.00000000      -0.68119198
2
Properties=species:S:1:pos:R:3:forces:R:3 energy=-10.41019977178989 pbc="F F F"
W        0.00000000       0.00000000       0.00000000       0.00000000       0.00000000       0.59838361
W        0.00000000       0.00000000       3.35454545       0.00000000       0.00000000      -0.59838361
2
Properties=species:S:1:pos:R:3:forces:R:3 energy=-10.377316342416472 pbc="F F F"
W        0.00000000       0.00000000       0.00000000       0.00000000       0.00000000       0.52079183
W        0.00000000       0.00000000       3.41333333       0.00000000       0.00000000      -0.52079183
2
Properties=species:S:1:pos:R:3:forces:R:3 energy=-10.3489082831624 pbc="F F F"
W        0.00000000       0.00000000       0.00000000       0.00000000       0.00000000       0.44630241
W        0.00000000       0.00000000       3.47212121       0.00000000       0.00000000      -0.44630241
2
Properties=species:S:1:pos:R:3:forces:R:3 energy=-10.324747063979846 pbc="F F F"
W        0.00000000       0.00000000       0.00000000       0.00000000       0.00000000       0.37670922
W        0.00000000       0.00000000       3.53090909       0.00000000       0.00000000      -0.37670922
2
Properties=species:S:1:pos:R:3:forces:R:3 energy=-10.304464259463778 pbc="F F F"
W        0.00000000       0.00000000       0.00000000       0.00000000       0.00000000       0.31477714
W        0.00000000       0.00000000       3.58969697       0.00000000       0.00000000      -0.31477714
2
Properties=species:S:1:pos:R:3:forces:R:3 energy=-10.287557720728605 pbc="F F F"
W        0.00000000       0.00000000       0.00000000       0.00000000       0.00000000       0.26203090
W        0.00000000       0.00000000       3.64848485       0.00000000       0.00000000      -0.26203090
2
Properties=species:S:1:pos:R:3:forces:R:3 energy=-10.273472789780538 pbc="F F F"
W        0.00000000       0.00000000       0.00000000       0.00000000       0.00000000       0.21857722
W        0.00000000       0.00000000       3.70727273       0.00000000       0.00000000      -0.21857722
2
Properties=species:S:1:pos:R:3:forces:R:3 energy=-10.261686352738133 pbc="F F F"
W        0.00000000       0.00000000       0.00000000       0.00000000       0.00000000       0.18382986
W        0.00000000       0.00000000       3.76606061       0.00000000       0.00000000      -0.18382986
2
Properties=species:S:1:pos:R:3:forces:R:3 energy=-10.251704970497538 pbc="F F F"
W        0.00000000       0.00000000       0.00000000       0.00000000       0.00000000       0.15695786
W        0.00000000       0.00000000       3.82484848       0.00000000       0.00000000      -0.15695786
2
Properties=species:S:1:pos:R:3:forces:R:3 energy=-10.243097265645371 pbc="F F F"
W        0.00000000       0.00000000       0.00000000       0.00000000       0.00000000       0.13690507
W        0.00000000       0.00000000       3.88363636       0.00000000       0.00000000      -0.13690507
2
Properties=species:S:1:pos:R:3:forces:R:3 energy=-10.23550454909256 pbc="F F F"
W        0.00000000       0.00000000       0.00000000       0.00000000       0.00000000       0.12231052
W        0.00000000       0.00000000       3.94242424       0.00000000       0.00000000      -0.12231052
2
Properties=species:S:1:pos:R:3:forces:R:3 energy=-10.228641716727859 pbc="F F F"
W        0.00000000       0.00000000       0.00000000       0.00000000       0.00000000       0.11160193
W        0.00000000       0.00000000       4.00121212       0.00000000       0.00000000      -0.11160193
2
Properties=species:S:1:pos:R:3:forces:R:3 energy=-10.222333584076537 pbc="F F F"
W        0.00000000       0.00000000       0.00000000       0.00000000       0.00000000       0.10329966
W        0.00000000       0.00000000       4.06000000       0.00000000       0.00000000      -0.10329966
2
Properties=species:S:1:pos:R:3:forces:R:3 energy=-10.216467202584557 pbc="F F F"
W        0.00000000       0.00000000       0.00000000       0.00000000       0.00000000       0.09633727
W        0.00000000       0.00000000       4.11878788       0.00000000       0.00000000      -0.09633727
2
Properties=species:S:1:pos:R:3:forces:R:3 energy=-10.210990931286837 pbc="F F F"
W        0.00000000       0.00000000       0.00000000       0.00000000       0.00000000       0.09016655
W        0.00000000       0.00000000       4.17757576       0.00000000       0.00000000      -0.09016655
2
Properties=species:S:1:pos:R:3:forces:R:3 energy=-10.205856322862568 pbc="F F F"
W        0.00000000       0.00000000       0.00000000       0.00000000       0.00000000       0.08460873
W        0.00000000       0.00000000       4.23636364       0.00000000       0.00000000      -0.08460873
2
Properties=species:S:1:pos:R:3:forces:R:3 energy=-10.201031449733069 pbc="F F F"
W        0.00000000       0.00000000       0.00000000       0.00000000       0.00000000       0.07960624
W        0.00000000       0.00000000       4.29515152       0.00000000       0.00000000      -0.07960624
2
Properties=species:S:1:pos:R:3:forces:R:3 energy=-10.196488626672915 pbc="F F F"
W        0.00000000       0.00000000       0.00000000       0.00000000       0.00000000       0.07504980
W        0.00000000       0.00000000       4.35393939       0.00000000       0.00000000      -0.07504980
2
Properties=species:S:1:pos:R:3:forces:R:3 energy=-10.192203346261847 pbc="F F F"
W        0.00000000       0.00000000       0.00000000       0.00000000       0.00000000       0.07072982
W        0.00000000       0.00000000       4.41272727       0.00000000       0.00000000      -0.07072982
2
Properties=species:S:1:pos:R:3:forces:R:3 energy=-10.188171495707616 pbc="F F F"
W        0.00000000       0.00000000       0.00000000       0.00000000       0.00000000       0.06639241
W        0.00000000       0.00000000       4.47151515       0.00000000       0.00000000      -0.06639241
2
Properties=species:S:1:pos:R:3:forces:R:3 energy=-10.184401793975724 pbc="F F F"
W        0.00000000       0.00000000       0.00000000       0.00000000       0.00000000       0.06181443
W        0.00000000       0.00000000       4.53030303       0.00000000       0.00000000      -0.06181443
2
Properties=species:S:1:pos:R:3:forces:R:3 energy=-10.180910934718813 pbc="F F F"
W        0.00000000       0.00000000       0.00000000       0.00000000       0.00000000       0.05685346
W        0.00000000       0.00000000       4.58909091       0.00000000       0.00000000      -0.05685346
2
Properties=species:S:1:pos:R:3:forces:R:3 energy=-10.177727404141766 pbc="F F F"
W        0.00000000       0.00000000       0.00000000       0.00000000       0.00000000       0.05145959
W        0.00000000       0.00000000       4.64787879       0.00000000       0.00000000      -0.05145959
2
Properties=species:S:1:pos:R:3:forces:R:3 energy=-10.174869540156772 pbc="F F F"
W        0.00000000       0.00000000       0.00000000       0.00000000       0.00000000       0.04565323
W        0.00000000       0.00000000       4.70666667       0.00000000       0.00000000      -0.04565323
2
Properties=species:S:1:pos:R:3:forces:R:3 energy=-10.17236643719056 pbc="F F F"
W        0.00000000       0.00000000       0.00000000       0.00000000       0.00000000       0.03950375
W        0.00000000       0.00000000       4.76545455       0.00000000       0.00000000      -0.03950375
2
Properties=species:S:1:pos:R:3:forces:R:3 energy=-10.170229329619268 pbc="F F F"
W        0.00000000       0.00000000       0.00000000       0.00000000       0.00000000       0.03311429
W        0.00000000       0.00000000       4.82424242       0.00000000       0.00000000      -0.03311429
2
Properties=species:S:1:pos:R:3:forces:R:3 energy=-10.168474435602521 pbc="F F F"
W        0.00000000       0.00000000       0.00000000       0.00000000       0.00000000       0.02663249
W        0.00000000       0.00000000       4.88303030       0.00000000       0.00000000      -0.02663249
2
Properties=species:S:1:pos:R:3:forces:R:3 energy=-10.167097093835286 pbc="F F F"
W        0.00000000       0.00000000       0.00000000       0.00000000       0.00000000       0.02026010
W        0.00000000       0.00000000       4.94181818       0.00000000       0.00000000      -0.02026010
2
Properties=species:S:1:pos:R:3:forces:R:3 energy=-10.166084129635777 pbc="F F F"
W        0.00000000       0.00000000       0.00000000       0.00000000       0.00000000       0.01426201
W        0.00000000       0.00000000       5.00060606       0.00000000       0.00000000      -0.01426201
2
Properties=species:S:1:pos:R:3:forces:R:3 energy=-10.165406231886559 pbc="F F F"
W        0.00000000       0.00000000       0.00000000       0.00000000       0.00000000       0.00894434
W        0.00000000       0.00000000       5.05939394       0.00000000       0.00000000      -0.00894434
2
Properties=species:S:1:pos:R:3:forces:R:3 energy=-10.16501397361053 pbc="F F F"
W        0.00000000       0.00000000       0.00000000       0.00000000       0.00000000       0.00461338
W        0.00000000       0.00000000       5.11818182       0.00000000       0.00000000      -0.00461338
2
Properties=species:S:1:pos:R:3:forces:R:3 energy=-10.164839703480443 pbc="F F F"
W        0.00000000       0.00000000       0.00000000       0.00000000       0.00000000       0.00152058
W        0.00000000       0.00000000       5.17696970       0.00000000       0.00000000      -0.00152058
2
Properties=species:S:1:pos:R:3:forces:R:3 energy=-10.16480705088386 pbc="F F F"
W        0.00000000       0.00000000       0.00000000       0.00000000       0.00000000      -0.00019374
W        0.00000000       0.00000000       5.23575758       0.00000000       0.00000000       0.00019374
2
Properties=species:S:1:pos:R:3:forces:R:3 energy=-10.164835615099163 pbc="F F F"
W        0.00000000       0.00000000       0.00000000       0.00000000       0.00000000      -0.00053476
W        0.00000000       0.00000000       5.29454545       0.00000000       0.00000000       0.00053476
2
Properties=species:S:1:pos:R:3:forces:R:3 energy=-10.16484668258973 pbc="F F F"
W        0.00000000       0.00000000       0.00000000       0.00000000       0.00000000       0.00033840
W        0.00000000       0.00000000       5.35333333       0.00000000       0.00000000      -0.00033840
2
Properties=species:S:1:pos:R:3:forces:R:3 energy=-10.164777443419657 pbc="F F F"
W        0.00000000       0.00000000       0.00000000       0.00000000       0.00000000       0.00213667
W        0.00000000       0.00000000       5.41212121       0.00000000       0.00000000      -0.00213667
2
Properties=species:S:1:pos:R:3:forces:R:3 energy=-10.164582935032355 pbc="F F F"
W        0.00000000       0.00000000       0.00000000       0.00000000       0.00000000       0.00449055
W        0.00000000       0.00000000       5.47090909       0.00000000       0.00000000      -0.00449055
2
Properties=species:S:1:pos:R:3:forces:R:3 energy=-10.164245518805073 pbc="F F F"
W        0.00000000       0.00000000       0.00000000       0.00000000       0.00000000       0.00701583
W        0.00000000       0.00000000       5.52969697       0.00000000       0.00000000      -0.00701583
2
Properties=species:S:1:pos:R:3:forces:R:3 energy=-10.163762479114984 pbc="F F F"
W        0.00000000       0.00000000       0.00000000       0.00000000       0.00000000       0.00937210
W        0.00000000       0.00000000       5.58848485       0.00000000       0.00000000      -0.00937210
2
Properties=species:S:1:pos:R:3:forces:R:3 energy=-10.163151796070224 pbc="F F F"
W        0.00000000       0.00000000       0.00000000       0.00000000       0.00000000       0.01131064
W        0.00000000       0.00000000       5.64727273       0.00000000       0.00000000      -0.01131064
2
Properties=species:S:1:pos:R:3:forces:R:3 energy=-10.162441575896864 pbc="F F F"
W        0.00000000       0.00000000       0.00000000       0.00000000       0.00000000       0.01269446
W        0.00000000       0.00000000       5.70606061       0.00000000       0.00000000      -0.01269446
2
Properties=species:S:1:pos:R:3:forces:R:3 energy=-10.161669154285391 pbc="F F F"
W        0.00000000       0.00000000       0.00000000       0.00000000       0.00000000       0.01349968
W        0.00000000       0.00000000       5.76484848       0.00000000       0.00000000      -0.01349968
2
Properties=species:S:1:pos:R:3:forces:R:3 energy=-10.160865897790266 pbc="F F F"
W        0.00000000       0.00000000       0.00000000       0.00000000       0.00000000       0.01378450
W        0.00000000       0.00000000       5.82363636       0.00000000       0.00000000      -0.01378450
2
Properties=species:S:1:pos:R:3:forces:R:3 energy=-10.160058083060418 pbc="F F F"
W        0.00000000       0.00000000       0.00000000       0.00000000       0.00000000       0.01366465
W        0.00000000       0.00000000       5.88242424       0.00000000       0.00000000      -0.01366465
2
Properties=species:S:1:pos:R:3:forces:R:3 energy=-10.159266020776577 pbc="F F F"
W        0.00000000       0.00000000       0.00000000       0.00000000       0.00000000       0.01327561
W        0.00000000       0.00000000       5.94121212       0.00000000       0.00000000      -0.01327561
2
Properties=species:S:1:pos:R:3:forces:R:3 energy=-10.15850123264218 pbc="F F F"
W        0.00000000       0.00000000       0.00000000       0.00000000       0.00000000       0.01275367
W        0.00000000       0.00000000       6.00000000       0.00000000       0.00000000      -0.01275367
