2
Properties=species:S:1:pos:R:3:forces:R:3 energy=-443870.7328143178 pbc="F F F"
Xe       0.00000000       0.00000000       0.00000000       0.00000000       0.00000000 4288416.50000000
Xe       0.00000000       0.00000000       0.18000000       0.00000000       0.00000000 -4288416.50000000
2
Properties=species:S:1:pos:R:3:forces:R:3 energy=-227537.45156431783 pbc="F F F"
Xe       0.00000000       0.00000000       0.00000000       0.00000000       0.00000000 2987750.25000000
Xe       0.00000000       0.00000000       0.23878788       0.00000000       0.00000000 -2987750.25000000
2
Properties=species:S:1:pos:R:3:forces:R:3 energy=-93913.19375181466 pbc="F F F"
Xe       0.00000000       0.00000000       0.00000000       0.00000000       0.00000000 1604152.37500000
Xe       0.00000000       0.00000000       0.29757576       0.00000000       0.00000000 -1604152.37500000
2
Properties=species:S:1:pos:R:3:forces:R:3 energy=-30169.09609555832 pbc="F F F"
Xe       0.00000000       0.00000000       0.00000000       0.00000000       0.00000000  647673.56250000
Xe       0.00000000       0.00000000       0.35636364       0.00000000       0.00000000 -647673.56250000
2
Properties=species:S:1:pos:R:3:forces:R:3 energy=-7359.183986176985 pbc="F F F"
Xe       0.00000000       0.00000000       0.00000000       0.00000000       0.00000000  201569.26562500
Xe       0.00000000       0.00000000       0.41515152       0.00000000       0.00000000 -201569.26562500
2
Properties=species:S:1:pos:R:3:forces:R:3 energy=-1086.8110613501224 pbc="F F F"
Xe       0.00000000       0.00000000       0.00000000       0.00000000       0.00000000   43749.72265625
Xe       0.00000000       0.00000000       0.47393939       0.00000000       0.00000000  -43749.72265625
2
Properties=species:S:1:pos:R:3:forces:R:3 energy=23.490383692047804 pbc="F F F"
Xe       0.00000000       0.00000000       0.00000000       0.00000000       0.00000000    4575.38525391
Xe       0.00000000       0.00000000       0.53272727       0.00000000       0.00000000   -4575.38525391
2
Properties=species:S:1:pos:R:3:forces:R:3 energy=86.15468276663472 pbc="F F F"
Xe       0.00000000       0.00000000       0.00000000       0.00000000       0.00000000    -653.41949463
Xe       0.00000000       0.00000000       0.59151515       0.00000000       0.00000000     653.41949463
2
Properties=species:S:1:pos:R:3:forces:R:3 energy=63.50077509846176 pbc="F F F"
Xe       0.00000000       0.00000000       0.00000000       0.00000000       0.00000000      86.25366211
Xe       0.00000000       0.00000000       0.65030303       0.00000000       0.00000000     -86.25366211
2
Properties=species:S:1:pos:R:3:forces:R:3 energy=79.77109234082523 pbc="F F F"
Xe       0.00000000       0.00000000       0.00000000       0.00000000       0.00000000    -136.76824951
Xe       0.00000000       0.00000000       0.70909091       0.00000000       0.00000000     136.76824951
2
Properties=species:S:1:pos:R:3:forces:R:3 energy=63.63456458228211 pbc="F F F"
Xe       0.00000000       0.00000000       0.00000000       0.00000000       0.00000000    -291.46020508
Xe       0.00000000       0.00000000       0.76787879       0.00000000       0.00000000     291.46020508
2
Properties=species:S:1:pos:R:3:forces:R:3 energy=50.35952528640138 pbc="F F F"
Xe       0.00000000       0.00000000       0.00000000       0.00000000       0.00000000    -156.61480713
Xe       0.00000000       0.00000000       0.82666667       0.00000000       0.00000000     156.61480713
2
Properties=species:S:1:pos:R:3:forces:R:3 energy=42.22214331760693 pbc="F F F"
Xe       0.00000000       0.00000000       0.00000000       0.00000000       0.00000000    -108.26727295
Xe       0.00000000       0.00000000       0.88545455       0.00000000       0.00000000     108.26727295
2
Properties=species:S:1:pos:R:3:forces:R:3 energy=36.02031606861891 pbc="F F F"
Xe       0.00000000       0.00000000       0.00000000       0.00000000       0.00000000    -117.72142792
Xe       0.00000000       0.00000000       0.94424242       0.00000000       0.00000000     117.72142792
2
Properties=species:S:1:pos:R:3:forces:R:3 energy=29.147808098643385 pbc="F F F"
Xe       0.00000000       0.00000000       0.00000000       0.00000000       0.00000000    -104.04055023
Xe       0.00000000       0.00000000       1.00303030       0.00000000       0.00000000     104.04055023
2
Properties=species:S:1:pos:R:3:forces:R:3 energy=23.994559758220188 pbc="F F F"
Xe       0.00000000       0.00000000       0.00000000       0.00000000       0.00000000     -79.38522339
Xe       0.00000000       0.00000000       1.06181818       0.00000000       0.00000000      79.38522339
2
Properties=species:S:1:pos:R:3:forces:R:3 energy=19.83168167071631 pbc="F F F"
Xe       0.00000000       0.00000000       0.00000000       0.00000000       0.00000000     -73.40837860
Xe       0.00000000       0.00000000       1.12060606       0.00000000       0.00000000      73.40837860
2
Properties=species:S:1:pos:R:3:forces:R:3 energy=15.582859030361533 pbc="F F F"
Xe       0.00000000       0.00000000       0.00000000       0.00000000       0.00000000     -68.92635345
Xe       0.00000000       0.00000000       1.17939394       0.00000000       0.00000000      68.92635345
2
Properties=species:S:1:pos:R:3:forces:R:3 energy=12.355290691749989 pbc="F F F"
Xe       0.00000000       0.00000000       0.00000000       0.00000000       0.00000000     -42.79952240
Xe       0.00000000       0.00000000       1.23818182       0.00000000       0.00000000      42.79952240
2
Properties=species:S:1:pos:R:3:forces:R:3 energy=10.05770255179818 pbc="F F F"
Xe       0.00000000       0.00000000       0.00000000       0.00000000       0.00000000     -35.52419281
Xe       0.00000000       0.00000000       1.29696970       0.00000000       0.00000000      35.52419281
2
Properties=species:S:1:pos:R:3:forces:R:3 energy=8.404547544105705 pbc="F F F"
Xe       0.00000000       0.00000000       0.00000000       0.00000000       0.00000000     -22.08987999
Xe       0.00000000       0.00000000       1.35575758       0.00000000       0.00000000      22.08987999
2
Properties=species:S:1:pos:R:3:forces:R:3 energy=7.403135804055371 pbc="F F F"
Xe       0.00000000       0.00000000       0.00000000       0.00000000       0.00000000     -12.22188473
Xe       0.00000000       0.00000000       1.41454545       0.00000000       0.00000000      12.22188473
2
Properties=species:S:1:pos:R:3:forces:R:3 energy=6.85439188622041 pbc="F F F"
Xe       0.00000000       0.00000000       0.00000000       0.00000000       0.00000000      -7.41130209
Xe       0.00000000       0.00000000       1.47333333       0.00000000       0.00000000       7.41130209
2
Properties=species:S:1:pos:R:3:forces:R:3 energy=6.438298280075516 pbc="F F F"
Xe       0.00000000       0.00000000       0.00000000       0.00000000       0.00000000      -6.96828032
Xe       0.00000000       0.00000000       1.53212121       0.00000000       0.00000000       6.96828032
2
Properties=species:S:1:pos:R:3:forces:R:3 energy=6.015646515098413 pbc="F F F"
Xe       0.00000000       0.00000000       0.00000000       0.00000000       0.00000000      -7.82889175
Xe       0.00000000       0.00000000       1.59090909       0.00000000       0.00000000       7.82889175
2
Properties=species:S:1:pos:R:3:forces:R:3 energy=5.492939707792894 pbc="F F F"
Xe       0.00000000       0.00000000       0.00000000       0.00000000       0.00000000      -9.73662376
Xe       0.00000000       0.00000000       1.64969697       0.00000000       0.00000000       9.73662376
2
Properties=species:S:1:pos:R:3:forces:R:3 energy=4.898877203850741 pbc="F F F"
Xe       0.00000000       0.00000000       0.00000000       0.00000000       0.00000000     -10.22475624
Xe       0.00000000       0.00000000       1.70848485       0.00000000       0.00000000      10.22475624
2
Properties=species:S:1:pos:R:3:forces:R:3 energy=4.319602997440198 pbc="F F F"
Xe       0.00000000       0.00000000       0.00000000       0.00000000       0.00000000      -9.36242771
Xe       0.00000000       0.00000000       1.76727273       0.00000000       0.00000000       9.36242771
2
Properties=species:S:1:pos:R:3:forces:R:3 energy=3.8031484930338006 pbc="F F F"
Xe       0.00000000       0.00000000       0.00000000       0.00000000       0.00000000      -8.21088791
Xe       0.00000000       0.00000000       1.82606061       0.00000000       0.00000000       8.21088791
2
Properties=species:S:1:pos:R:3:forces:R:3 energy=3.3585961393685397 pbc="F F F"
Xe       0.00000000       0.00000000       0.00000000       0.00000000       0.00000000      -6.90610218
Xe       0.00000000       0.00000000       1.88484848       0.00000000       0.00000000       6.90610218
2
Properties=species:S:1:pos:R:3:forces:R:3 energy=2.989921547916069 pbc="F F F"
Xe       0.00000000       0.00000000       0.00000000       0.00000000       0.00000000      -5.67957687
Xe       0.00000000       0.00000000       1.94363636       0.00000000       0.00000000       5.67957687
2
Properties=species:S:1:pos:R:3:forces:R:3 energy=2.68600944795385 pbc="F F F"
Xe       0.00000000       0.00000000       0.00000000       0.00000000       0.00000000      -4.69622374
Xe       0.00000000       0.00000000       2.00242424       0.00000000       0.00000000       4.69622374
2
Properties=species:S:1:pos:R:3:forces:R:3 energy=2.43233242025773 pbc="F F F"
Xe       0.00000000       0.00000000       0.00000000       0.00000000       0.00000000      -3.97213030
Xe       0.00000000       0.00000000       2.06121212       0.00000000       0.00000000       3.97213030
2
Properties=species:S:1:pos:R:3:forces:R:3 energy=2.2192268543093157 pbc="F F F"
Xe       0.00000000       0.00000000       0.00000000       0.00000000       0.00000000      -3.27277374
Xe       0.00000000       0.00000000       2.12000000       0.00000000       0.00000000       3.27277374
2
Properties=species:S:1:pos:R:3:forces:R:3 energy=2.044279076281664 pbc="F F F"
Xe       0.00000000       0.00000000       0.00000000       0.00000000       0.00000000      -2.71816421
Xe       0.00000000       0.00000000       2.17878788       0.00000000       0.00000000       2.71816421
2
Properties=species:S:1:pos:R:3:forces:R:3 energy=1.8965954258575461 pbc="F F F"
Xe       0.00000000       0.00000000       0.00000000       0.00000000       0.00000000      -2.33306623
Xe       0.00000000       0.00000000       2.23757576       0.00000000       0.00000000       2.33306623
2
Properties=species:S:1:pos:R:3:forces:R:3 energy=1.7647978743694859 pbc="F F F"
Xe       0.00000000       0.00000000       0.00000000       0.00000000       0.00000000      -2.19394183
Xe       0.00000000       0.00000000       2.29636364       0.00000000       0.00000000       2.19394183
2
Properties=species:S:1:pos:R:3:forces:R:3 energy=1.6374055071976092 pbc="F F F"
Xe       0.00000000       0.00000000       0.00000000       0.00000000       0.00000000      -2.12101936
Xe       0.00000000       0.00000000       2.35515152       0.00000000       0.00000000       2.12101936
2
Properties=species:S:1:pos:R:3:forces:R:3 energy=1.5164758621845884 pbc="F F F"
Xe       0.00000000       0.00000000       0.00000000       0.00000000       0.00000000      -2.00351453
Xe       0.00000000       0.00000000       2.41393939       0.00000000       0.00000000       2.00351453
2
Properties=species:S:1:pos:R:3:forces:R:3 energy=1.4004617022986772 pbc="F F F"
Xe       0.00000000       0.00000000       0.00000000       0.00000000       0.00000000      -1.94953859
Xe       0.00000000       0.00000000       2.47272727       0.00000000       0.00000000       1.94953859
2
Properties=species:S:1:pos:R:3:forces:R:3 energy=1.2866504986959673 pbc="F F F"
Xe       0.00000000       0.00000000       0.00000000       0.00000000       0.00000000      -1.92909133
Xe       0.00000000       0.00000000       2.53151515       0.00000000       0.00000000       1.92909133
2
Properties=species:S:1:pos:R:3:forces:R:3 energy=1.173083217109354 pbc="F F F"
Xe       0.00000000       0.00000000       0.00000000       0.00000000       0.00000000      -1.93535614
Xe       0.00000000       0.00000000       2.59030303       0.00000000       0.00000000       1.93535614
2
Properties=species:S:1:pos:R:3:forces:R:3 energy=1.0593096437462397 pbc="F F F"
Xe       0.00000000       0.00000000       0.00000000       0.00000000       0.00000000      -1.93172133
Xe       0.00000000       0.00000000       2.64909091       0.00000000       0.00000000       1.93172133
2
Properties=species:S:1:pos:R:3:forces:R:3 energy=0.9466706412079703 pbc="F F F"
Xe       0.00000000       0.00000000       0.00000000       0.00000000       0.00000000      -1.89133573
Xe       0.00000000       0.00000000       2.70787879       0.00000000       0.00000000       1.89133573
2
Properties=species:S:1:pos:R:3:forces:R:3 energy=0.8381322123266006 pbc="F F F"
Xe       0.00000000       0.00000000       0.00000000       0.00000000       0.00000000      -1.79228604
Xe       0.00000000       0.00000000       2.76666667       0.00000000       0.00000000       1.79228604
2
Properties=species:S:1:pos:R:3:forces:R:3 energy=0.7365841230096722 pbc="F F F"
Xe       0.00000000       0.00000000       0.00000000       0.00000000       0.00000000      -1.66015565
Xe       0.00000000       0.00000000       2.82545455       0.00000000       0.00000000       1.66015565
2
Properties=species:S:1:pos:R:3:forces:R:3 energy=0.643029815716385 pbc="F F F"
Xe       0.00000000       0.00000000       0.00000000       0.00000000       0.00000000      -1.52243948
Xe       0.00000000       0.00000000       2.88424242       0.00000000       0.00000000       1.52243948
2
Properties=species:S:1:pos:R:3:forces:R:3 energy=0.5576125376794732 pbc="F F F"
Xe       0.00000000       0.00000000       0.00000000       0.00000000       0.00000000      -1.38321888
Xe       0.00000000       0.00000000       2.94303030       0.00000000       0.00000000       1.38321888
2
Properties=species:S:1:pos:R:3:forces:R:3 energy=0.48037443715066586 pbc="F F F"
Xe       0.00000000       0.00000000       0.00000000       0.00000000       0.00000000      -1.24538875
Xe       0.00000000       0.00000000       3.00181818       0.00000000       0.00000000       1.24538875
2
Properties=species:S:1:pos:R:3:forces:R:3 energy=0.4110295540673379 pbc="F F F"
Xe       0.00000000       0.00000000       0.00000000       0.00000000       0.00000000      -1.11551440
Xe       0.00000000       0.00000000       3.06060606       0.00000000       0.00000000       1.11551440
2
Properties=species:S:1:pos:R:3:forces:R:3 energy=0.3490095647414766 pbc="F F F"
Xe       0.00000000       0.00000000       0.00000000       0.00000000       0.00000000      -0.99592590
Xe       0.00000000       0.00000000       3.11939394       0.00000000       0.00000000       0.99592590
2
Properties=species:S:1:pos:R:3:forces:R:3 energy=0.2937708238078762 pbc="F F F"
Xe       0.00000000       0.00000000       0.00000000       0.00000000       0.00000000      -0.88445663
Xe       0.00000000       0.00000000       3.17818182       0.00000000       0.00000000       0.88445663
2
Properties=species:S:1:pos:R:3:forces:R:3 energy=0.24490684710831986 pbc="F F F"
Xe       0.00000000       0.00000000       0.00000000       0.00000000       0.00000000      -0.77882719
Xe       0.00000000       0.00000000       3.23696970       0.00000000       0.00000000       0.77882719
2
Properties=species:S:1:pos:R:3:forces:R:3 energy=0.2020910310439739 pbc="F F F"
Xe       0.00000000       0.00000000       0.00000000       0.00000000       0.00000000      -0.67894888
Xe       0.00000000       0.00000000       3.29575758       0.00000000       0.00000000       0.67894888
2
Properties=species:S:1:pos:R:3:forces:R:3 energy=0.16492403300654182 pbc="F F F"
Xe       0.00000000       0.00000000       0.00000000       0.00000000       0.00000000      -0.58678591
Xe       0.00000000       0.00000000       3.35454545       0.00000000       0.00000000       0.58678591
2
Properties=species:S:1:pos:R:3:forces:R:3 energy=0.13290510096015104 pbc="F F F"
Xe       0.00000000       0.00000000       0.00000000       0.00000000       0.00000000      -0.50429147
Xe       0.00000000       0.00000000       3.41333333       0.00000000       0.00000000       0.50429147
2
Properties=species:S:1:pos:R:3:forces:R:3 energy=0.10543007422587791 pbc="F F F"
Xe       0.00000000       0.00000000       0.00000000       0.00000000       0.00000000      -0.43220302
Xe       0.00000000       0.00000000       3.47212121       0.00000000       0.00000000       0.43220302
2
Properties=species:S:1:pos:R:3:forces:R:3 energy=0.08189057828194249 pbc="F F F"
Xe       0.00000000       0.00000000       0.00000000       0.00000000       0.00000000      -0.37029719
Xe       0.00000000       0.00000000       3.53090909       0.00000000       0.00000000       0.37029719
2
Properties=species:S:1:pos:R:3:forces:R:3 energy=0.061708255668790464 pbc="F F F"
Xe       0.00000000       0.00000000       0.00000000       0.00000000       0.00000000      -0.31776589
Xe       0.00000000       0.00000000       3.58969697       0.00000000       0.00000000       0.31776589
2
Properties=species:S:1:pos:R:3:forces:R:3 energy=0.04436716557327378 pbc="F F F"
Xe       0.00000000       0.00000000       0.00000000       0.00000000       0.00000000      -0.27341345
Xe       0.00000000       0.00000000       3.64848485       0.00000000       0.00000000       0.27341345
2
Properties=species:S:1:pos:R:3:forces:R:3 energy=0.029429033114246703 pbc="F F F"
Xe       0.00000000       0.00000000       0.00000000       0.00000000       0.00000000      -0.23589395
Xe       0.00000000       0.00000000       3.70727273       0.00000000       0.00000000       0.23589395
2
Properties=species:S:1:pos:R:3:forces:R:3 energy=0.016519844049159578 pbc="F F F"
Xe       0.00000000       0.00000000       0.00000000       0.00000000       0.00000000      -0.20392084
Xe       0.00000000       0.00000000       3.76606061       0.00000000       0.00000000       0.20392084
2
Properties=species:S:1:pos:R:3:forces:R:3 energy=0.00536419922420453 pbc="F F F"
Xe       0.00000000       0.00000000       0.00000000       0.00000000       0.00000000      -0.17635319
Xe       0.00000000       0.00000000       3.82484848       0.00000000       0.00000000       0.17635319
2
Properties=species:S:1:pos:R:3:forces:R:3 energy=-0.00427949409751225 pbc="F F F"
Xe       0.00000000       0.00000000       0.00000000       0.00000000       0.00000000      -0.15221061
Xe       0.00000000       0.00000000       3.88363636       0.00000000       0.00000000       0.15221061
2
Properties=species:S:1:pos:R:3:forces:R:3 energy=-0.01258472480662351 pbc="F F F"
Xe       0.00000000       0.00000000       0.00000000       0.00000000       0.00000000      -0.13071822
Xe       0.00000000       0.00000000       3.94242424       0.00000000       0.00000000       0.13071822
2
Properties=species:S:1:pos:R:3:forces:R:3 energy=-0.019687278316206463 pbc="F F F"
Xe       0.00000000       0.00000000       0.00000000       0.00000000       0.00000000      -0.11135188
Xe       0.00000000       0.00000000       4.00121212       0.00000000       0.00000000       0.11135188
2
Properties=species:S:1:pos:R:3:forces:R:3 energy=-0.02571188558966564 pbc="F F F"
Xe       0.00000000       0.00000000       0.00000000       0.00000000       0.00000000      -0.09384130
Xe       0.00000000       0.00000000       4.06000000       0.00000000       0.00000000       0.09384130
2
Properties=species:S:1:pos:R:3:forces:R:3 energy=-0.030756897827405295 pbc="F F F"
Xe       0.00000000       0.00000000       0.00000000       0.00000000       0.00000000      -0.07811297
Xe       0.00000000       0.00000000       4.11878788       0.00000000       0.00000000       0.07811297
2
Properties=species:S:1:pos:R:3:forces:R:3 energy=-0.03493231939788832 pbc="F F F"
Xe       0.00000000       0.00000000       0.00000000       0.00000000       0.00000000      -0.06419219
Xe       0.00000000       0.00000000       4.17757576       0.00000000       0.00000000       0.06419219
2
Properties=species:S:1:pos:R:3:forces:R:3 energy=-0.03834062664535509 pbc="F F F"
Xe       0.00000000       0.00000000       0.00000000       0.00000000       0.00000000      -0.05210757
Xe       0.00000000       0.00000000       4.23636364       0.00000000       0.00000000       0.05210757
2
Properties=species:S:1:pos:R:3:forces:R:3 energy=-0.04109190946946649 pbc="F F F"
Xe       0.00000000       0.00000000       0.00000000       0.00000000       0.00000000      -0.04181200
Xe       0.00000000       0.00000000       4.29515152       0.00000000       0.00000000       0.04181200
2
Properties=species:S:1:pos:R:3:forces:R:3 energy=-0.04328858719366423 pbc="F F F"
Xe       0.00000000       0.00000000       0.00000000       0.00000000       0.00000000      -0.03314320
Xe       0.00000000       0.00000000       4.35393939       0.00000000       0.00000000       0.03314320
2
Properties=species:S:1:pos:R:3:forces:R:3 energy=-0.04501374589364576 pbc="F F F"
Xe       0.00000000       0.00000000       0.00000000       0.00000000       0.00000000      -0.02583089
Xe       0.00000000       0.00000000       4.41272727       0.00000000       0.00000000       0.02583089
2
Properties=species:S:1:pos:R:3:forces:R:3 energy=-0.0463444581595725 pbc="F F F"
Xe       0.00000000       0.00000000       0.00000000       0.00000000       0.00000000      -0.01955863
Xe       0.00000000       0.00000000       4.47151515       0.00000000       0.00000000       0.01955863
2
Properties=species:S:1:pos:R:3:forces:R:3 energy=-0.04733077533462061 pbc="F F F"
Xe       0.00000000       0.00000000       0.00000000       0.00000000       0.00000000      -0.01404096
Xe       0.00000000       0.00000000       4.53030303       0.00000000       0.00000000       0.01404096
2
Properties=species:S:1:pos:R:3:forces:R:3 energy=-0.048007030638692286 pbc="F F F"
Xe       0.00000000       0.00000000       0.00000000       0.00000000       0.00000000      -0.00908339
Xe       0.00000000       0.00000000       4.58909091       0.00000000       0.00000000       0.00908339
2
Properties=species:S:1:pos:R:3:forces:R:3 energy=-0.048409014809577544 pbc="F F F"
Xe       0.00000000       0.00000000       0.00000000       0.00000000       0.00000000      -0.00460014
Xe       0.00000000       0.00000000       4.64787879       0.00000000       0.00000000       0.00460014
2
Properties=species:S:1:pos:R:3:forces:R:3 energy=-0.04855868880349237 pbc="F F F"
Xe       0.00000000       0.00000000       0.00000000       0.00000000       0.00000000      -0.00058755
Xe       0.00000000       0.00000000       4.70666667       0.00000000       0.00000000       0.00058755
2
Properties=species:S:1:pos:R:3:forces:R:3 energy=-0.04848705138782852 pbc="F F F"
Xe       0.00000000       0.00000000       0.00000000       0.00000000       0.00000000       0.00291942
Xe       0.00000000       0.00000000       4.76545455       0.00000000       0.00000000      -0.00291942
2
Properties=species:S:1:pos:R:3:forces:R:3 energy=-0.0482265240018219 pbc="F F F"
Xe       0.00000000       0.00000000       0.00000000       0.00000000       0.00000000       0.00588979
Xe       0.00000000       0.00000000       4.82424242       0.00000000       0.00000000      -0.00588979
2
Properties=species:S:1:pos:R:3:forces:R:3 energy=-0.047805263556697786 pbc="F F F"
Xe       0.00000000       0.00000000       0.00000000       0.00000000       0.00000000       0.00831458
Xe       0.00000000       0.00000000       4.88303030       0.00000000       0.00000000      -0.00831458
2
Properties=species:S:1:pos:R:3:forces:R:3 energy=-0.047256680171902016 pbc="F F F"
Xe       0.00000000       0.00000000       0.00000000       0.00000000       0.00000000       0.01020603
Xe       0.00000000       0.00000000       4.94181818       0.00000000       0.00000000      -0.01020603
2
Properties=species:S:1:pos:R:3:forces:R:3 energy=-0.04661569058601152 pbc="F F F"
Xe       0.00000000       0.00000000       0.00000000       0.00000000       0.00000000       0.01158447
Xe       0.00000000       0.00000000       5.00060606       0.00000000       0.00000000      -0.01158447
2
Properties=species:S:1:pos:R:3:forces:R:3 energy=-0.04590542928079203 pbc="F F F"
Xe       0.00000000       0.00000000       0.00000000       0.00000000       0.00000000       0.01247149
Xe       0.00000000       0.00000000       5.05939394       0.00000000       0.00000000      -0.01247149
2
Properties=species:S:1:pos:R:3:forces:R:3 energy=-0.04515631404797091 pbc="F F F"
Xe       0.00000000       0.00000000       0.00000000       0.00000000       0.00000000       0.01288991
Xe       0.00000000       0.00000000       5.11818182       0.00000000       0.00000000      -0.01288991
2
Properties=species:S:1:pos:R:3:forces:R:3 energy=-0.044398487078748605 pbc="F F F"
Xe       0.00000000       0.00000000       0.00000000       0.00000000       0.00000000       0.01287373
Xe       0.00000000       0.00000000       5.17696970       0.00000000       0.00000000      -0.01287373
2
Properties=species:S:1:pos:R:3:forces:R:3 energy=-0.04365232098623366 pbc="F F F"
Xe       0.00000000       0.00000000       0.00000000       0.00000000       0.00000000       0.01247816
Xe       0.00000000       0.00000000       5.23575758       0.00000000       0.00000000      -0.01247816
2
Properties=species:S:1:pos:R:3:forces:R:3 energy=-0.042936081462106465 pbc="F F F"
Xe       0.00000000       0.00000000       0.00000000       0.00000000       0.00000000       0.01178493
Xe       0.00000000       0.00000000       5.29454545       0.00000000       0.00000000      -0.01178493
2
Properties=species:S:1:pos:R:3:forces:R:3 energy=-0.042269795034905897 pbc="F F F"
Xe       0.00000000       0.00000000       0.00000000       0.00000000       0.00000000       0.01089719
Xe       0.00000000       0.00000000       5.35333333       0.00000000       0.00000000      -0.01089719
2
Properties=species:S:1:pos:R:3:forces:R:3 energy=-0.0416580900599338 pbc="F F F"
Xe       0.00000000       0.00000000       0.00000000       0.00000000       0.00000000       0.00992638
Xe       0.00000000       0.00000000       5.41212121       0.00000000       0.00000000      -0.00992638
2
Properties=species:S:1:pos:R:3:forces:R:3 energy=-0.041101696247939495 pbc="F F F"
Xe       0.00000000       0.00000000       0.00000000       0.00000000       0.00000000       0.00897565
Xe       0.00000000       0.00000000       5.47090909       0.00000000       0.00000000      -0.00897565
2
Properties=species:S:1:pos:R:3:forces:R:3 energy=-0.04059937260459651 pbc="F F F"
Xe       0.00000000       0.00000000       0.00000000       0.00000000       0.00000000       0.00812408
Xe       0.00000000       0.00000000       5.52969697       0.00000000       0.00000000      -0.00812408
2
Properties=species:S:1:pos:R:3:forces:R:3 energy=-0.04014410223670345 pbc="F F F"
Xe       0.00000000       0.00000000       0.00000000       0.00000000       0.00000000       0.00741678
Xe       0.00000000       0.00000000       5.58848485       0.00000000       0.00000000      -0.00741678
2
Properties=species:S:1:pos:R:3:forces:R:3 energy=-0.03972696090242607 pbc="F F F"
Xe       0.00000000       0.00000000       0.00000000       0.00000000       0.00000000       0.00686250
Xe       0.00000000       0.00000000       5.64727273       0.00000000       0.00000000      -0.00686250
2
Properties=species:S:1:pos:R:3:forces:R:3 energy=-0.039335186695953955 pbc="F F F"
Xe       0.00000000       0.00000000       0.00000000       0.00000000       0.00000000       0.00643882
Xe       0.00000000       0.00000000       5.70606061       0.00000000       0.00000000      -0.00643882
2
Properties=species:S:1:pos:R:3:forces:R:3 energy=-0.03896747407858439 pbc="F F F"
Xe       0.00000000       0.00000000       0.00000000       0.00000000       0.00000000       0.00610333
Xe       0.00000000       0.00000000       5.76484848       0.00000000       0.00000000      -0.00610333
2
Properties=species:S:1:pos:R:3:forces:R:3 energy=-0.038616834667515275 pbc="F F F"
Xe       0.00000000       0.00000000       0.00000000       0.00000000       0.00000000       0.00580833
Xe       0.00000000       0.00000000       5.82363636       0.00000000       0.00000000      -0.00580833
2
Properties=species:S:1:pos:R:3:forces:R:3 energy=-0.038282010837353886 pbc="F F F"
Xe       0.00000000       0.00000000       0.00000000       0.00000000       0.00000000       0.00551636
Xe       0.00000000       0.00000000       5.88242424       0.00000000       0.00000000      -0.00551636
2
Properties=species:S:1:pos:R:3:forces:R:3 energy=-0.03796560638534979 pbc="F F F"
Xe       0.00000000       0.00000000       0.00000000       0.00000000       0.00000000       0.00521100
Xe       0.00000000       0.00000000       5.94121212       0.00000000       0.00000000      -0.00521100
2
Properties=species:S:1:pos:R:3:forces:R:3 energy=-0.0376702698542404 pbc="F F F"
Xe       0.00000000       0.00000000       0.00000000       0.00000000       0.00000000       0.00489970
Xe       0.00000000       0.00000000       6.00000000       0.00000000       0.00000000      -0.00489970
