2
Properties=species:S:1:pos:R:3:forces:R:3 energy=22079405.920996074 pbc="F F F"
Y        0.00000000       0.00000000       0.00000000       0.00000000       0.00000000 -240683440.00000000
Y        0.00000000       0.00000000       0.18000000       0.00000000       0.00000000 240683440.00000000
2
Properties=species:S:1:pos:R:3:forces:R:3 energy=10101920.920996074 pbc="F F F"
Y        0.00000000       0.00000000       0.00000000       0.00000000       0.00000000 -161280576.00000000
Y        0.00000000       0.00000000       0.23878788       0.00000000       0.00000000 161280576.00000000
2
Properties=species:S:1:pos:R:3:forces:R:3 energy=3211046.170996074 pbc="F F F"
Y        0.00000000       0.00000000       0.00000000       0.00000000       0.00000000 -76329768.00000000
Y        0.00000000       0.00000000       0.29757576       0.00000000       0.00000000 76329768.00000000
2
Properties=species:S:1:pos:R:3:forces:R:3 energy=639639.1084960869 pbc="F F F"
Y        0.00000000       0.00000000       0.00000000       0.00000000       0.00000000 -18958894.00000000
Y        0.00000000       0.00000000       0.35636364       0.00000000       0.00000000 18958894.00000000
2
Properties=species:S:1:pos:R:3:forces:R:3 energy=133662.81162108688 pbc="F F F"
Y        0.00000000       0.00000000       0.00000000       0.00000000       0.00000000 -3997050.50000000
Y        0.00000000       0.00000000       0.41515152       0.00000000       0.00000000 3997050.50000000
2
Properties=species:S:1:pos:R:3:forces:R:3 energy=20342.79208983687 pbc="F F F"
Y        0.00000000       0.00000000       0.00000000       0.00000000       0.00000000 -518798.21875000
Y        0.00000000       0.00000000       0.47393939       0.00000000       0.00000000  518798.21875000
2
Properties=species:S:1:pos:R:3:forces:R:3 energy=4387.576757824627 pbc="F F F"
Y        0.00000000       0.00000000       0.00000000       0.00000000       0.00000000 -115703.21875000
Y        0.00000000       0.00000000       0.53272727       0.00000000       0.00000000  115703.21875000
2
Properties=species:S:1:pos:R:3:forces:R:3 energy=1150.9600586312195 pbc="F F F"
Y        0.00000000       0.00000000       0.00000000       0.00000000       0.00000000  -23885.84765625
Y        0.00000000       0.00000000       0.59151515       0.00000000       0.00000000   23885.84765625
2
Properties=species:S:1:pos:R:3:forces:R:3 energy=456.68686531619386 pbc="F F F"
Y        0.00000000       0.00000000       0.00000000       0.00000000       0.00000000   -3593.45629883
Y        0.00000000       0.00000000       0.65030303       0.00000000       0.00000000    3593.45629883
2
Properties=species:S:1:pos:R:3:forces:R:3 energy=342.2196412584566 pbc="F F F"
Y        0.00000000       0.00000000       0.00000000       0.00000000       0.00000000    -961.42889404
Y        0.00000000       0.00000000       0.70909091       0.00000000       0.00000000     961.42889404
2
Properties=species:S:1:pos:R:3:forces:R:3 energy=288.7118288534912 pbc="F F F"
Y        0.00000000       0.00000000       0.00000000       0.00000000       0.00000000    -608.09234619
Y        0.00000000       0.00000000       0.76787879       0.00000000       0.00000000     608.09234619
2
Properties=species:S:1:pos:R:3:forces:R:3 energy=269.06131630389854 pbc="F F F"
Y        0.00000000       0.00000000       0.00000000       0.00000000       0.00000000    -386.04327393
Y        0.00000000       0.00000000       0.82666667       0.00000000       0.00000000     386.04327393
2
Properties=species:S:1:pos:R:3:forces:R:3 energy=264.3773565457017 pbc="F F F"
Y        0.00000000       0.00000000       0.00000000       0.00000000       0.00000000    -363.57653809
Y        0.00000000       0.00000000       0.88545455       0.00000000       0.00000000     363.57653809
2
Properties=species:S:1:pos:R:3:forces:R:3 energy=212.51930935178973 pbc="F F F"
Y        0.00000000       0.00000000       0.00000000       0.00000000       0.00000000   -1432.98693848
Y        0.00000000       0.00000000       0.94424242       0.00000000       0.00000000    1432.98693848
2
Properties=species:S:1:pos:R:3:forces:R:3 energy=128.65219854488063 pbc="F F F"
Y        0.00000000       0.00000000       0.00000000       0.00000000       0.00000000   -1186.88012695
Y        0.00000000       0.00000000       1.00303030       0.00000000       0.00000000    1186.88012695
2
Properties=species:S:1:pos:R:3:forces:R:3 energy=72.85517912491432 pbc="F F F"
Y        0.00000000       0.00000000       0.00000000       0.00000000       0.00000000    -769.57434082
Y        0.00000000       0.00000000       1.06181818       0.00000000       0.00000000     769.57434082
2
Properties=species:S:1:pos:R:3:forces:R:3 energy=40.3288660527682 pbc="F F F"
Y        0.00000000       0.00000000       0.00000000       0.00000000       0.00000000    -328.38476562
Y        0.00000000       0.00000000       1.12060606       0.00000000       0.00000000     328.38476562
2
Properties=species:S:1:pos:R:3:forces:R:3 energy=29.65778924950078 pbc="F F F"
Y        0.00000000       0.00000000       0.00000000       0.00000000       0.00000000    -128.17959595
Y        0.00000000       0.00000000       1.17939394       0.00000000       0.00000000     128.17959595
2
Properties=species:S:1:pos:R:3:forces:R:3 energy=27.800330431300537 pbc="F F F"
Y        0.00000000       0.00000000       0.00000000       0.00000000       0.00000000      16.29407692
Y        0.00000000       0.00000000       1.23818182       0.00000000       0.00000000     -16.29407692
2
Properties=species:S:1:pos:R:3:forces:R:3 energy=26.084443000146965 pbc="F F F"
Y        0.00000000       0.00000000       0.00000000       0.00000000       0.00000000     -74.36988831
Y        0.00000000       0.00000000       1.29696970       0.00000000       0.00000000      74.36988831
2
Properties=species:S:1:pos:R:3:forces:R:3 energy=20.847350066039375 pbc="F F F"
Y        0.00000000       0.00000000       0.00000000       0.00000000       0.00000000     -91.93503571
Y        0.00000000       0.00000000       1.35575758       0.00000000       0.00000000      91.93503571
2
Properties=species:S:1:pos:R:3:forces:R:3 energy=15.621613986207448 pbc="F F F"
Y        0.00000000       0.00000000       0.00000000       0.00000000       0.00000000     -84.66195679
Y        0.00000000       0.00000000       1.41454545       0.00000000       0.00000000      84.66195679
2
Properties=species:S:1:pos:R:3:forces:R:3 energy=11.174751939193955 pbc="F F F"
Y        0.00000000       0.00000000       0.00000000       0.00000000       0.00000000     -63.91298294
Y        0.00000000       0.00000000       1.47333333       0.00000000       0.00000000      63.91298294
2
Properties=species:S:1:pos:R:3:forces:R:3 energy=8.186962695802801 pbc="F F F"
Y        0.00000000       0.00000000       0.00000000       0.00000000       0.00000000     -39.85255051
Y        0.00000000       0.00000000       1.53212121       0.00000000       0.00000000      39.85255051
2
Properties=species:S:1:pos:R:3:forces:R:3 energy=6.238604919674116 pbc="F F F"
Y        0.00000000       0.00000000       0.00000000       0.00000000       0.00000000     -28.36958313
Y        0.00000000       0.00000000       1.59090909       0.00000000       0.00000000      28.36958313
2
Properties=species:S:1:pos:R:3:forces:R:3 energy=4.739125453829379 pbc="F F F"
Y        0.00000000       0.00000000       0.00000000       0.00000000       0.00000000     -22.48107910
Y        0.00000000       0.00000000       1.64969697       0.00000000       0.00000000      22.48107910
2
Properties=species:S:1:pos:R:3:forces:R:3 energy=3.4961435578439737 pbc="F F F"
Y        0.00000000       0.00000000       0.00000000       0.00000000       0.00000000     -20.54248047
Y        0.00000000       0.00000000       1.70848485       0.00000000       0.00000000      20.54248047
2
Properties=species:S:1:pos:R:3:forces:R:3 energy=2.3564345020614486 pbc="F F F"
Y        0.00000000       0.00000000       0.00000000       0.00000000       0.00000000     -17.98656464
Y        0.00000000       0.00000000       1.76727273       0.00000000       0.00000000      17.98656464
2
Properties=species:S:1:pos:R:3:forces:R:3 energy=1.3547598927128504 pbc="F F F"
Y        0.00000000       0.00000000       0.00000000       0.00000000       0.00000000     -16.05119705
Y        0.00000000       0.00000000       1.82606061       0.00000000       0.00000000      16.05119705
2
Properties=species:S:1:pos:R:3:forces:R:3 energy=0.4886595224945564 pbc="F F F"
Y        0.00000000       0.00000000       0.00000000       0.00000000       0.00000000     -13.60848999
Y        0.00000000       0.00000000       1.88484848       0.00000000       0.00000000      13.60848999
2
Properties=species:S:1:pos:R:3:forces:R:3 energy=-0.2663433791794775 pbc="F F F"
Y        0.00000000       0.00000000       0.00000000       0.00000000       0.00000000     -12.11185169
Y        0.00000000       0.00000000       1.94363636       0.00000000       0.00000000      12.11185169
2
Properties=species:S:1:pos:R:3:forces:R:3 energy=-0.9371993253730326 pbc="F F F"
Y        0.00000000       0.00000000       0.00000000       0.00000000       0.00000000     -10.70626450
Y        0.00000000       0.00000000       2.00242424       0.00000000       0.00000000      10.70626450
2
Properties=species:S:1:pos:R:3:forces:R:3 energy=-1.5275147575546772 pbc="F F F"
Y        0.00000000       0.00000000       0.00000000       0.00000000       0.00000000      -9.41432095
Y        0.00000000       0.00000000       2.06121212       0.00000000       0.00000000       9.41432095
2
Properties=species:S:1:pos:R:3:forces:R:3 energy=-2.041092719821977 pbc="F F F"
Y        0.00000000       0.00000000       0.00000000       0.00000000       0.00000000      -7.99714327
Y        0.00000000       0.00000000       2.12000000       0.00000000       0.00000000       7.99714327
2
Properties=species:S:1:pos:R:3:forces:R:3 energy=-2.4729717612215314 pbc="F F F"
Y        0.00000000       0.00000000       0.00000000       0.00000000       0.00000000      -6.84797192
Y        0.00000000       0.00000000       2.17878788       0.00000000       0.00000000       6.84797192
2
Properties=species:S:1:pos:R:3:forces:R:3 energy=-2.8590861399261978 pbc="F F F"
Y        0.00000000       0.00000000       0.00000000       0.00000000       0.00000000      -6.32541227
Y        0.00000000       0.00000000       2.23757576       0.00000000       0.00000000       6.32541227
2
Properties=species:S:1:pos:R:3:forces:R:3 energy=-3.2196916639976063 pbc="F F F"
Y        0.00000000       0.00000000       0.00000000       0.00000000       0.00000000      -5.94364309
Y        0.00000000       0.00000000       2.29636364       0.00000000       0.00000000       5.94364309
2
Properties=species:S:1:pos:R:3:forces:R:3 energy=-3.5548206633278507 pbc="F F F"
Y        0.00000000       0.00000000       0.00000000       0.00000000       0.00000000      -5.44078732
Y        0.00000000       0.00000000       2.35515152       0.00000000       0.00000000       5.44078732
2
Properties=species:S:1:pos:R:3:forces:R:3 energy=-3.8604414780804874 pbc="F F F"
Y        0.00000000       0.00000000       0.00000000       0.00000000       0.00000000      -4.96760416
Y        0.00000000       0.00000000       2.41393939       0.00000000       0.00000000       4.96760416
2
Properties=species:S:1:pos:R:3:forces:R:3 energy=-4.139177384203929 pbc="F F F"
Y        0.00000000       0.00000000       0.00000000       0.00000000       0.00000000      -4.51585960
Y        0.00000000       0.00000000       2.47272727       0.00000000       0.00000000       4.51585960
2
Properties=species:S:1:pos:R:3:forces:R:3 energy=-4.390908199407676 pbc="F F F"
Y        0.00000000       0.00000000       0.00000000       0.00000000       0.00000000      -4.04193068
Y        0.00000000       0.00000000       2.53151515       0.00000000       0.00000000       4.04193068
2
Properties=species:S:1:pos:R:3:forces:R:3 energy=-4.615271694866516 pbc="F F F"
Y        0.00000000       0.00000000       0.00000000       0.00000000       0.00000000      -3.61269522
Y        0.00000000       0.00000000       2.59030303       0.00000000       0.00000000       3.61269522
2
Properties=species:S:1:pos:R:3:forces:R:3 energy=-4.818257283445204 pbc="F F F"
Y        0.00000000       0.00000000       0.00000000       0.00000000       0.00000000      -3.30673933
Y        0.00000000       0.00000000       2.64909091       0.00000000       0.00000000       3.30673933
2
Properties=species:S:1:pos:R:3:forces:R:3 energy=-5.004279839057799 pbc="F F F"
Y        0.00000000       0.00000000       0.00000000       0.00000000       0.00000000      -3.01364470
Y        0.00000000       0.00000000       2.70787879       0.00000000       0.00000000       3.01364470
2
Properties=species:S:1:pos:R:3:forces:R:3 energy=-5.171198091521037 pbc="F F F"
Y        0.00000000       0.00000000       0.00000000       0.00000000       0.00000000      -2.65466404
Y        0.00000000       0.00000000       2.76666667       0.00000000       0.00000000       2.65466404
2
Properties=species:S:1:pos:R:3:forces:R:3 energy=-5.315792081677327 pbc="F F F"
Y        0.00000000       0.00000000       0.00000000       0.00000000       0.00000000      -2.26441622
Y        0.00000000       0.00000000       2.82545455       0.00000000       0.00000000       2.26441622
2
Properties=species:S:1:pos:R:3:forces:R:3 energy=-5.437841725023358 pbc="F F F"
Y        0.00000000       0.00000000       0.00000000       0.00000000       0.00000000      -1.89339614
Y        0.00000000       0.00000000       2.88424242       0.00000000       0.00000000       1.89339614
2
Properties=species:S:1:pos:R:3:forces:R:3 energy=-5.5391269582335525 pbc="F F F"
Y        0.00000000       0.00000000       0.00000000       0.00000000       0.00000000      -1.55821657
Y        0.00000000       0.00000000       2.94303030       0.00000000       0.00000000       1.55821657
2
Properties=species:S:1:pos:R:3:forces:R:3 energy=-5.621650837200907 pbc="F F F"
Y        0.00000000       0.00000000       0.00000000       0.00000000       0.00000000      -1.25354540
Y        0.00000000       0.00000000       3.00181818       0.00000000       0.00000000       1.25354540
2
Properties=species:S:1:pos:R:3:forces:R:3 energy=-5.6869753892713995 pbc="F F F"
Y        0.00000000       0.00000000       0.00000000       0.00000000       0.00000000      -0.97302914
Y        0.00000000       0.00000000       3.06060606       0.00000000       0.00000000       0.97302914
2
Properties=species:S:1:pos:R:3:forces:R:3 energy=-5.73664470757253 pbc="F F F"
Y        0.00000000       0.00000000       0.00000000       0.00000000       0.00000000      -0.72276938
Y        0.00000000       0.00000000       3.11939394       0.00000000       0.00000000       0.72276938
2
Properties=species:S:1:pos:R:3:forces:R:3 energy=-5.7727506119723815 pbc="F F F"
Y        0.00000000       0.00000000       0.00000000       0.00000000       0.00000000      -0.51287013
Y        0.00000000       0.00000000       3.17818182       0.00000000       0.00000000       0.51287013
2
Properties=species:S:1:pos:R:3:forces:R:3 energy=-5.79780160224892 pbc="F F F"
Y        0.00000000       0.00000000       0.00000000       0.00000000       0.00000000      -0.34631646
Y        0.00000000       0.00000000       3.23696970       0.00000000       0.00000000       0.34631646
2
Properties=species:S:1:pos:R:3:forces:R:3 energy=-5.814229094458811 pbc="F F F"
Y        0.00000000       0.00000000       0.00000000       0.00000000       0.00000000      -0.21851180
Y        0.00000000       0.00000000       3.29575758       0.00000000       0.00000000       0.21851180
2
Properties=species:S:1:pos:R:3:forces:R:3 energy=-5.824096302149364 pbc="F F F"
Y        0.00000000       0.00000000       0.00000000       0.00000000       0.00000000      -0.12155015
Y        0.00000000       0.00000000       3.35454545       0.00000000       0.00000000       0.12155015
2
Properties=species:S:1:pos:R:3:forces:R:3 energy=-5.828949512296207 pbc="F F F"
Y        0.00000000       0.00000000       0.00000000       0.00000000       0.00000000      -0.04621002
Y        0.00000000       0.00000000       3.41333333       0.00000000       0.00000000       0.04621002
2
Properties=species:S:1:pos:R:3:forces:R:3 energy=-5.829698853651179 pbc="F F F"
Y        0.00000000       0.00000000       0.00000000       0.00000000       0.00000000       0.02073957
Y        0.00000000       0.00000000       3.47212121       0.00000000       0.00000000      -0.02073957
2
Properties=species:S:1:pos:R:3:forces:R:3 energy=-5.826382264638288 pbc="F F F"
Y        0.00000000       0.00000000       0.00000000       0.00000000       0.00000000       0.09392015
Y        0.00000000       0.00000000       3.53090909       0.00000000       0.00000000      -0.09392015
2
Properties=species:S:1:pos:R:3:forces:R:3 energy=-5.818421301327798 pbc="F F F"
Y        0.00000000       0.00000000       0.00000000       0.00000000       0.00000000       0.17844224
Y        0.00000000       0.00000000       3.58969697       0.00000000       0.00000000      -0.17844224
2
Properties=species:S:1:pos:R:3:forces:R:3 energy=-5.805333868212601 pbc="F F F"
Y        0.00000000       0.00000000       0.00000000       0.00000000       0.00000000       0.26631051
Y        0.00000000       0.00000000       3.64848485       0.00000000       0.00000000      -0.26631051
2
Properties=species:S:1:pos:R:3:forces:R:3 energy=-5.787262704147712 pbc="F F F"
Y        0.00000000       0.00000000       0.00000000       0.00000000       0.00000000       0.34664881
Y        0.00000000       0.00000000       3.70727273       0.00000000       0.00000000      -0.34664881
2
Properties=species:S:1:pos:R:3:forces:R:3 energy=-5.764818268660477 pbc="F F F"
Y        0.00000000       0.00000000       0.00000000       0.00000000       0.00000000       0.41478315
Y        0.00000000       0.00000000       3.76606061       0.00000000       0.00000000      -0.41478315
2
Properties=species:S:1:pos:R:3:forces:R:3 energy=-5.738718925220769 pbc="F F F"
Y        0.00000000       0.00000000       0.00000000       0.00000000       0.00000000       0.47151199
Y        0.00000000       0.00000000       3.82484848       0.00000000       0.00000000      -0.47151199
2
Properties=species:S:1:pos:R:3:forces:R:3 energy=-5.70956241033679 pbc="F F F"
Y        0.00000000       0.00000000       0.00000000       0.00000000       0.00000000       0.51901460
Y        0.00000000       0.00000000       3.88363636       0.00000000       0.00000000      -0.51901460
2
Properties=species:S:1:pos:R:3:forces:R:3 energy=-5.677846925874033 pbc="F F F"
Y        0.00000000       0.00000000       0.00000000       0.00000000       0.00000000       0.55877125
Y        0.00000000       0.00000000       3.94242424       0.00000000       0.00000000      -0.55877125
2
Properties=species:S:1:pos:R:3:forces:R:3 energy=-5.643999929123704 pbc="F F F"
Y        0.00000000       0.00000000       0.00000000       0.00000000       0.00000000       0.59152216
Y        0.00000000       0.00000000       4.00121212       0.00000000       0.00000000      -0.59152216
2
Properties=species:S:1:pos:R:3:forces:R:3 energy=-5.608424766472421 pbc="F F F"
Y        0.00000000       0.00000000       0.00000000       0.00000000       0.00000000       0.61784416
Y        0.00000000       0.00000000       4.06000000       0.00000000       0.00000000      -0.61784416
2
Properties=species:S:1:pos:R:3:forces:R:3 energy=-5.571471422444217 pbc="F F F"
Y        0.00000000       0.00000000       0.00000000       0.00000000       0.00000000       0.63845462
Y        0.00000000       0.00000000       4.11878788       0.00000000       0.00000000      -0.63845462
2
Properties=species:S:1:pos:R:3:forces:R:3 energy=-5.5334555945963455 pbc="F F F"
Y        0.00000000       0.00000000       0.00000000       0.00000000       0.00000000       0.65406990
Y        0.00000000       0.00000000       4.17757576       0.00000000       0.00000000      -0.65406990
2
Properties=species:S:1:pos:R:3:forces:R:3 energy=-5.494655641787598 pbc="F F F"
Y        0.00000000       0.00000000       0.00000000       0.00000000       0.00000000       0.66512090
Y        0.00000000       0.00000000       4.23636364       0.00000000       0.00000000      -0.66512090
2
Properties=species:S:1:pos:R:3:forces:R:3 energy=-5.45534089631282 pbc="F F F"
Y        0.00000000       0.00000000       0.00000000       0.00000000       0.00000000       0.67162192
Y        0.00000000       0.00000000       4.29515152       0.00000000       0.00000000      -0.67162192
2
Properties=species:S:1:pos:R:3:forces:R:3 energy=-5.415783874607666 pbc="F F F"
Y        0.00000000       0.00000000       0.00000000       0.00000000       0.00000000       0.67332447
Y        0.00000000       0.00000000       4.35393939       0.00000000       0.00000000      -0.67332447
2
Properties=species:S:1:pos:R:3:forces:R:3 energy=-5.376273679374179 pbc="F F F"
Y        0.00000000       0.00000000       0.00000000       0.00000000       0.00000000       0.66996443
Y        0.00000000       0.00000000       4.41272727       0.00000000       0.00000000      -0.66996443
2
Properties=species:S:1:pos:R:3:forces:R:3 energy=-5.337112368617219 pbc="F F F"
Y        0.00000000       0.00000000       0.00000000       0.00000000       0.00000000       0.66148937
Y        0.00000000       0.00000000       4.47151515       0.00000000       0.00000000      -0.66148937
2
Properties=species:S:1:pos:R:3:forces:R:3 energy=-5.298597000559191 pbc="F F F"
Y        0.00000000       0.00000000       0.00000000       0.00000000       0.00000000       0.64814049
Y        0.00000000       0.00000000       4.53030303       0.00000000       0.00000000      -0.64814049
2
Properties=species:S:1:pos:R:3:forces:R:3 energy=-5.260990903033323 pbc="F F F"
Y        0.00000000       0.00000000       0.00000000       0.00000000       0.00000000       0.63043320
Y        0.00000000       0.00000000       4.58909091       0.00000000       0.00000000      -0.63043320
2
Properties=species:S:1:pos:R:3:forces:R:3 energy=-5.224538130653868 pbc="F F F"
Y        0.00000000       0.00000000       0.00000000       0.00000000       0.00000000       0.60911500
Y        0.00000000       0.00000000       4.64787879       0.00000000       0.00000000      -0.60911500
2
Properties=species:S:1:pos:R:3:forces:R:3 energy=-5.18942822955155 pbc="F F F"
Y        0.00000000       0.00000000       0.00000000       0.00000000       0.00000000       0.58511192
Y        0.00000000       0.00000000       4.70666667       0.00000000       0.00000000      -0.58511192
2
Properties=species:S:1:pos:R:3:forces:R:3 energy=-5.155776954810981 pbc="F F F"
Y        0.00000000       0.00000000       0.00000000       0.00000000       0.00000000       0.55953515
Y        0.00000000       0.00000000       4.76545455       0.00000000       0.00000000      -0.55953515
2
Properties=species:S:1:pos:R:3:forces:R:3 energy=-5.123645565704534 pbc="F F F"
Y        0.00000000       0.00000000       0.00000000       0.00000000       0.00000000       0.53357732
Y        0.00000000       0.00000000       4.82424242       0.00000000       0.00000000      -0.53357732
2
Properties=species:S:1:pos:R:3:forces:R:3 energy=-5.093027322196451 pbc="F F F"
Y        0.00000000       0.00000000       0.00000000       0.00000000       0.00000000       0.50839573
Y        0.00000000       0.00000000       4.88303030       0.00000000       0.00000000      -0.50839573
2
Properties=species:S:1:pos:R:3:forces:R:3 energy=-5.063840701516678 pbc="F F F"
Y        0.00000000       0.00000000       0.00000000       0.00000000       0.00000000       0.48489881
Y        0.00000000       0.00000000       4.94181818       0.00000000       0.00000000      -0.48489881
2
Properties=species:S:1:pos:R:3:forces:R:3 energy=-5.0359684924721915 pbc="F F F"
Y        0.00000000       0.00000000       0.00000000       0.00000000       0.00000000       0.46352616
Y        0.00000000       0.00000000       5.00060606       0.00000000       0.00000000      -0.46352616
2
Properties=species:S:1:pos:R:3:forces:R:3 energy=-5.009301639122971 pbc="F F F"
Y        0.00000000       0.00000000       0.00000000       0.00000000       0.00000000       0.44404176
Y        0.00000000       0.00000000       5.05939394       0.00000000       0.00000000      -0.44404176
2
Properties=species:S:1:pos:R:3:forces:R:3 energy=-4.983740958061315 pbc="F F F"
Y        0.00000000       0.00000000       0.00000000       0.00000000       0.00000000       0.42553318
Y        0.00000000       0.00000000       5.11818182       0.00000000       0.00000000      -0.42553318
2
Properties=species:S:1:pos:R:3:forces:R:3 energy=-4.959279065704018 pbc="F F F"
Y        0.00000000       0.00000000       0.00000000       0.00000000       0.00000000       0.40651298
Y        0.00000000       0.00000000       5.17696970       0.00000000       0.00000000      -0.40651298
2
Properties=species:S:1:pos:R:3:forces:R:3 energy=-4.935992723555272 pbc="F F F"
Y        0.00000000       0.00000000       0.00000000       0.00000000       0.00000000       0.38525131
Y        0.00000000       0.00000000       5.23575758       0.00000000       0.00000000      -0.38525131
2
Properties=species:S:1:pos:R:3:forces:R:3 energy=-4.914063495923766 pbc="F F F"
Y        0.00000000       0.00000000       0.00000000       0.00000000       0.00000000       0.36014050
Y        0.00000000       0.00000000       5.29454545       0.00000000       0.00000000      -0.36014050
2
Properties=species:S:1:pos:R:3:forces:R:3 energy=-4.893745502393964 pbc="F F F"
Y        0.00000000       0.00000000       0.00000000       0.00000000       0.00000000       0.33013162
Y        0.00000000       0.00000000       5.35333333       0.00000000       0.00000000      -0.33013162
2
Properties=species:S:1:pos:R:3:forces:R:3 energy=-4.875345137239694 pbc="F F F"
Y        0.00000000       0.00000000       0.00000000       0.00000000       0.00000000       0.29503787
Y        0.00000000       0.00000000       5.41212121       0.00000000       0.00000000      -0.29503787
2
Properties=species:S:1:pos:R:3:forces:R:3 energy=-4.8591427224103825 pbc="F F F"
Y        0.00000000       0.00000000       0.00000000       0.00000000       0.00000000       0.25564477
Y        0.00000000       0.00000000       5.47090909       0.00000000       0.00000000      -0.25564477
2
Properties=species:S:1:pos:R:3:forces:R:3 energy=-4.845336196396875 pbc="F F F"
Y        0.00000000       0.00000000       0.00000000       0.00000000       0.00000000       0.21370453
Y        0.00000000       0.00000000       5.52969697       0.00000000       0.00000000      -0.21370453
2
Properties=species:S:1:pos:R:3:forces:R:3 energy=-4.83401430998027 pbc="F F F"
Y        0.00000000       0.00000000       0.00000000       0.00000000       0.00000000       0.17164566
Y        0.00000000       0.00000000       5.58848485       0.00000000       0.00000000      -0.17164566
2
Properties=species:S:1:pos:R:3:forces:R:3 energy=-4.82510327115535 pbc="F F F"
Y        0.00000000       0.00000000       0.00000000       0.00000000       0.00000000       0.13219531
Y        0.00000000       0.00000000       5.64727273       0.00000000       0.00000000      -0.13219531
2
Properties=species:S:1:pos:R:3:forces:R:3 energy=-4.818372232757649 pbc="F F F"
Y        0.00000000       0.00000000       0.00000000       0.00000000       0.00000000       0.09792874
Y        0.00000000       0.00000000       5.70606061       0.00000000       0.00000000      -0.09792874
2
Properties=species:S:1:pos:R:3:forces:R:3 energy=-4.81344669775685 pbc="F F F"
Y        0.00000000       0.00000000       0.00000000       0.00000000       0.00000000       0.07074840
Y        0.00000000       0.00000000       5.76484848       0.00000000       0.00000000      -0.07074840
2
Properties=species:S:1:pos:R:3:forces:R:3 energy=-4.8098906397861345 pbc="F F F"
Y        0.00000000       0.00000000       0.00000000       0.00000000       0.00000000       0.05164535
Y        0.00000000       0.00000000       5.82363636       0.00000000       0.00000000      -0.05164535
2
Properties=species:S:1:pos:R:3:forces:R:3 energy=-4.80722148316289 pbc="F F F"
Y        0.00000000       0.00000000       0.00000000       0.00000000       0.00000000       0.04030216
Y        0.00000000       0.00000000       5.88242424       0.00000000       0.00000000      -0.04030216
2
Properties=species:S:1:pos:R:3:forces:R:3 energy=-4.80503047176102 pbc="F F F"
Y        0.00000000       0.00000000       0.00000000       0.00000000       0.00000000       0.03512814
Y        0.00000000       0.00000000       5.94121212       0.00000000       0.00000000      -0.03512814
2
Properties=species:S:1:pos:R:3:forces:R:3 energy=-4.803025571683893 pbc="F F F"
Y        0.00000000       0.00000000       0.00000000       0.00000000       0.00000000       0.03343363
Y        0.00000000       0.00000000       6.00000000       0.00000000       0.00000000      -0.03343363
