2
Properties=species:S:1:pos:R:3:forces:R:3 energy=-102165.69095148212 pbc="F F F"
Yb       0.00000000       0.00000000       0.00000000       0.00000000       0.00000000 1220199.00000000
Yb       0.00000000       0.00000000       0.18000000       0.00000000       0.00000000 -1220199.00000000
2
Properties=species:S:1:pos:R:3:forces:R:3 energy=-43416.425326482116 pbc="F F F"
Yb       0.00000000       0.00000000       0.00000000       0.00000000       0.00000000  756043.37500000
Yb       0.00000000       0.00000000       0.23878788       0.00000000       0.00000000 -756043.37500000
2
Properties=species:S:1:pos:R:3:forces:R:3 energy=-5954.595248357118 pbc="F F F"
Yb       0.00000000       0.00000000       0.00000000       0.00000000       0.00000000  500262.78125000
Yb       0.00000000       0.00000000       0.29757576       0.00000000       0.00000000 -500262.78125000
2
Properties=species:S:1:pos:R:3:forces:R:3 energy=4929.086392274217 pbc="F F F"
Yb       0.00000000       0.00000000       0.00000000       0.00000000       0.00000000  -80509.80468750
Yb       0.00000000       0.00000000       0.35636364       0.00000000       0.00000000   80509.80468750
2
Properties=species:S:1:pos:R:3:forces:R:3 energy=541.3180817273421 pbc="F F F"
Yb       0.00000000       0.00000000       0.00000000       0.00000000       0.00000000  -54577.27343750
Yb       0.00000000       0.00000000       0.41515152       0.00000000       0.00000000   54577.27343750
2
Properties=species:S:1:pos:R:3:forces:R:3 energy=-184.55803215792383 pbc="F F F"
Yb       0.00000000       0.00000000       0.00000000       0.00000000       0.00000000    -158.00819397
Yb       0.00000000       0.00000000       0.47393939       0.00000000       0.00000000     158.00819397
2
Properties=species:S:1:pos:R:3:forces:R:3 energy=-97.98217307542834 pbc="F F F"
Yb       0.00000000       0.00000000       0.00000000       0.00000000       0.00000000    1711.95373535
Yb       0.00000000       0.00000000       0.53272727       0.00000000       0.00000000   -1711.95373535
2
Properties=species:S:1:pos:R:3:forces:R:3 energy=-25.41050823356944 pbc="F F F"
Yb       0.00000000       0.00000000       0.00000000       0.00000000       0.00000000     204.27583313
Yb       0.00000000       0.00000000       0.59151515       0.00000000       0.00000000    -204.27583313
2
Properties=species:S:1:pos:R:3:forces:R:3 energy=-23.23222068945206 pbc="F F F"
Yb       0.00000000       0.00000000       0.00000000       0.00000000       0.00000000    -548.13201904
Yb       0.00000000       0.00000000       0.65030303       0.00000000       0.00000000     548.13201904
2
Properties=species:S:1:pos:R:3:forces:R:3 energy=-33.85811516626876 pbc="F F F"
Yb       0.00000000       0.00000000       0.00000000       0.00000000       0.00000000     581.80328369
Yb       0.00000000       0.00000000       0.70909091       0.00000000       0.00000000    -581.80328369
2
Properties=species:S:1:pos:R:3:forces:R:3 energy=-1.657273167547575 pbc="F F F"
Yb       0.00000000       0.00000000       0.00000000       0.00000000       0.00000000     565.66479492
Yb       0.00000000       0.00000000       0.76787879       0.00000000       0.00000000    -565.66479492
2
Properties=species:S:1:pos:R:3:forces:R:3 energy=30.64203194666609 pbc="F F F"
Yb       0.00000000       0.00000000       0.00000000       0.00000000       0.00000000     515.20941162
Yb       0.00000000       0.00000000       0.82666667       0.00000000       0.00000000    -515.20941162
2
Properties=species:S:1:pos:R:3:forces:R:3 energy=49.27327492048884 pbc="F F F"
Yb       0.00000000       0.00000000       0.00000000       0.00000000       0.00000000     183.03785706
Yb       0.00000000       0.00000000       0.88545455       0.00000000       0.00000000    -183.03785706
2
Properties=species:S:1:pos:R:3:forces:R:3 energy=52.89405234839107 pbc="F F F"
Yb       0.00000000       0.00000000       0.00000000       0.00000000       0.00000000     -68.17403412
Yb       0.00000000       0.00000000       0.94424242       0.00000000       0.00000000      68.17403412
2
Properties=species:S:1:pos:R:3:forces:R:3 energy=46.5668318434599 pbc="F F F"
Yb       0.00000000       0.00000000       0.00000000       0.00000000       0.00000000    -109.86692810
Yb       0.00000000       0.00000000       1.00303030       0.00000000       0.00000000     109.86692810
2
Properties=species:S:1:pos:R:3:forces:R:3 energy=41.251841410017796 pbc="F F F"
Yb       0.00000000       0.00000000       0.00000000       0.00000000       0.00000000     -90.89537048
Yb       0.00000000       0.00000000       1.06181818       0.00000000       0.00000000      90.89537048
2
Properties=species:S:1:pos:R:3:forces:R:3 energy=36.21161616228652 pbc="F F F"
Yb       0.00000000       0.00000000       0.00000000       0.00000000       0.00000000     -69.57255554
Yb       0.00000000       0.00000000       1.12060606       0.00000000       0.00000000      69.57255554
2
Properties=species:S:1:pos:R:3:forces:R:3 energy=32.32317032377877 pbc="F F F"
Yb       0.00000000       0.00000000       0.00000000       0.00000000       0.00000000     -64.25730133
Yb       0.00000000       0.00000000       1.17939394       0.00000000       0.00000000      64.25730133
2
Properties=species:S:1:pos:R:3:forces:R:3 energy=29.30854412790694 pbc="F F F"
Yb       0.00000000       0.00000000       0.00000000       0.00000000       0.00000000     -38.75350189
Yb       0.00000000       0.00000000       1.23818182       0.00000000       0.00000000      38.75350189
2
Properties=species:S:1:pos:R:3:forces:R:3 energy=27.489682815785887 pbc="F F F"
Yb       0.00000000       0.00000000       0.00000000       0.00000000       0.00000000     -28.36617279
Yb       0.00000000       0.00000000       1.29696970       0.00000000       0.00000000      28.36617279
2
Properties=species:S:1:pos:R:3:forces:R:3 energy=25.816512846121746 pbc="F F F"
Yb       0.00000000       0.00000000       0.00000000       0.00000000       0.00000000     -28.24838638
Yb       0.00000000       0.00000000       1.35575758       0.00000000       0.00000000      28.24838638
2
Properties=species:S:1:pos:R:3:forces:R:3 energy=23.929712713375267 pbc="F F F"
Yb       0.00000000       0.00000000       0.00000000       0.00000000       0.00000000     -37.20593643
Yb       0.00000000       0.00000000       1.41454545       0.00000000       0.00000000      37.20593643
2
Properties=species:S:1:pos:R:3:forces:R:3 energy=21.688447716902786 pbc="F F F"
Yb       0.00000000       0.00000000       0.00000000       0.00000000       0.00000000     -34.82916641
Yb       0.00000000       0.00000000       1.47333333       0.00000000       0.00000000      34.82916641
2
Properties=species:S:1:pos:R:3:forces:R:3 energy=19.98488982415147 pbc="F F F"
Yb       0.00000000       0.00000000       0.00000000       0.00000000       0.00000000     -25.65167618
Yb       0.00000000       0.00000000       1.53212121       0.00000000       0.00000000      25.65167618
2
Properties=species:S:1:pos:R:3:forces:R:3 energy=18.422081777044554 pbc="F F F"
Yb       0.00000000       0.00000000       0.00000000       0.00000000       0.00000000     -28.61503983
Yb       0.00000000       0.00000000       1.59090909       0.00000000       0.00000000      28.61503983
2
Properties=species:S:1:pos:R:3:forces:R:3 energy=16.665308838111137 pbc="F F F"
Yb       0.00000000       0.00000000       0.00000000       0.00000000       0.00000000     -30.22842407
Yb       0.00000000       0.00000000       1.64969697       0.00000000       0.00000000      30.22842407
2
Properties=species:S:1:pos:R:3:forces:R:3 energy=14.83443467587416 pbc="F F F"
Yb       0.00000000       0.00000000       0.00000000       0.00000000       0.00000000     -32.27436447
Yb       0.00000000       0.00000000       1.70848485       0.00000000       0.00000000      32.27436447
2
Properties=species:S:1:pos:R:3:forces:R:3 energy=12.96958822630256 pbc="F F F"
Yb       0.00000000       0.00000000       0.00000000       0.00000000       0.00000000     -30.72861290
Yb       0.00000000       0.00000000       1.76727273       0.00000000       0.00000000      30.72861290
2
Properties=species:S:1:pos:R:3:forces:R:3 energy=11.17235700034047 pbc="F F F"
Yb       0.00000000       0.00000000       0.00000000       0.00000000       0.00000000     -30.59456825
Yb       0.00000000       0.00000000       1.82606061       0.00000000       0.00000000      30.59456825
2
Properties=species:S:1:pos:R:3:forces:R:3 energy=9.42976744700634 pbc="F F F"
Yb       0.00000000       0.00000000       0.00000000       0.00000000       0.00000000     -28.35120392
Yb       0.00000000       0.00000000       1.88484848       0.00000000       0.00000000      28.35120392
2
Properties=species:S:1:pos:R:3:forces:R:3 energy=7.85339165286329 pbc="F F F"
Yb       0.00000000       0.00000000       0.00000000       0.00000000       0.00000000     -25.17717743
Yb       0.00000000       0.00000000       1.94363636       0.00000000       0.00000000      25.17717743
2
Properties=species:S:1:pos:R:3:forces:R:3 energy=6.482260944434163 pbc="F F F"
Yb       0.00000000       0.00000000       0.00000000       0.00000000       0.00000000     -21.37872124
Yb       0.00000000       0.00000000       2.00242424       0.00000000       0.00000000      21.37872124
2
Properties=species:S:1:pos:R:3:forces:R:3 energy=5.335898839290283 pbc="F F F"
Yb       0.00000000       0.00000000       0.00000000       0.00000000       0.00000000     -17.73448181
Yb       0.00000000       0.00000000       2.06121212       0.00000000       0.00000000      17.73448181
2
Properties=species:S:1:pos:R:3:forces:R:3 energy=4.3921089225133745 pbc="F F F"
Yb       0.00000000       0.00000000       0.00000000       0.00000000       0.00000000     -14.38513565
Yb       0.00000000       0.00000000       2.12000000       0.00000000       0.00000000      14.38513565
2
Properties=species:S:1:pos:R:3:forces:R:3 energy=3.6323007294814484 pbc="F F F"
Yb       0.00000000       0.00000000       0.00000000       0.00000000       0.00000000     -11.62975311
Yb       0.00000000       0.00000000       2.17878788       0.00000000       0.00000000      11.62975311
2
Properties=species:S:1:pos:R:3:forces:R:3 energy=3.01306250146812 pbc="F F F"
Yb       0.00000000       0.00000000       0.00000000       0.00000000       0.00000000      -9.47185802
Yb       0.00000000       0.00000000       2.23757576       0.00000000       0.00000000       9.47185802
2
Properties=species:S:1:pos:R:3:forces:R:3 energy=2.513235617616338 pbc="F F F"
Yb       0.00000000       0.00000000       0.00000000       0.00000000       0.00000000      -7.59199572
Yb       0.00000000       0.00000000       2.29636364       0.00000000       0.00000000       7.59199572
2
Properties=species:S:1:pos:R:3:forces:R:3 energy=2.11213353852696 pbc="F F F"
Yb       0.00000000       0.00000000       0.00000000       0.00000000       0.00000000      -6.14370966
Yb       0.00000000       0.00000000       2.35515152       0.00000000       0.00000000       6.14370966
2
Properties=species:S:1:pos:R:3:forces:R:3 energy=1.7811142433454703 pbc="F F F"
Yb       0.00000000       0.00000000       0.00000000       0.00000000       0.00000000      -5.17055035
Yb       0.00000000       0.00000000       2.41393939       0.00000000       0.00000000       5.17055035
2
Properties=species:S:1:pos:R:3:forces:R:3 energy=1.500261900904558 pbc="F F F"
Yb       0.00000000       0.00000000       0.00000000       0.00000000       0.00000000      -4.41328049
Yb       0.00000000       0.00000000       2.47272727       0.00000000       0.00000000       4.41328049
2
Properties=species:S:1:pos:R:3:forces:R:3 energy=1.2598326273164993 pbc="F F F"
Yb       0.00000000       0.00000000       0.00000000       0.00000000       0.00000000      -3.77661133
Yb       0.00000000       0.00000000       2.53151515       0.00000000       0.00000000       3.77661133
2
Properties=species:S:1:pos:R:3:forces:R:3 energy=1.0543073539291161 pbc="F F F"
Yb       0.00000000       0.00000000       0.00000000       0.00000000       0.00000000      -3.24341154
Yb       0.00000000       0.00000000       2.59030303       0.00000000       0.00000000       3.24341154
2
Properties=species:S:1:pos:R:3:forces:R:3 energy=0.8748292406818288 pbc="F F F"
Yb       0.00000000       0.00000000       0.00000000       0.00000000       0.00000000      -2.88846660
Yb       0.00000000       0.00000000       2.64909091       0.00000000       0.00000000       2.88846660
2
Properties=species:S:1:pos:R:3:forces:R:3 energy=0.7129302218534559 pbc="F F F"
Yb       0.00000000       0.00000000       0.00000000       0.00000000       0.00000000      -2.62430573
Yb       0.00000000       0.00000000       2.70787879       0.00000000       0.00000000       2.62430573
2
Properties=species:S:1:pos:R:3:forces:R:3 energy=0.5663601312449866 pbc="F F F"
Yb       0.00000000       0.00000000       0.00000000       0.00000000       0.00000000      -2.35927010
Yb       0.00000000       0.00000000       2.76666667       0.00000000       0.00000000       2.35927010
2
Properties=species:S:1:pos:R:3:forces:R:3 energy=0.4356856698202443 pbc="F F F"
Yb       0.00000000       0.00000000       0.00000000       0.00000000       0.00000000      -2.08748722
Yb       0.00000000       0.00000000       2.82545455       0.00000000       0.00000000       2.08748722
2
Properties=species:S:1:pos:R:3:forces:R:3 energy=0.3204926781729847 pbc="F F F"
Yb       0.00000000       0.00000000       0.00000000       0.00000000       0.00000000      -1.83720887
Yb       0.00000000       0.00000000       2.88424242       0.00000000       0.00000000       1.83720887
2
Properties=species:S:1:pos:R:3:forces:R:3 energy=0.21887468032547208 pbc="F F F"
Yb       0.00000000       0.00000000       0.00000000       0.00000000       0.00000000      -1.62689281
Yb       0.00000000       0.00000000       2.94303030       0.00000000       0.00000000       1.62689281
2
Properties=species:S:1:pos:R:3:forces:R:3 energy=0.12850654994635702 pbc="F F F"
Yb       0.00000000       0.00000000       0.00000000       0.00000000       0.00000000      -1.45199287
Yb       0.00000000       0.00000000       3.00181818       0.00000000       0.00000000       1.45199287
2
Properties=species:S:1:pos:R:3:forces:R:3 energy=0.0477742579557011 pbc="F F F"
Yb       0.00000000       0.00000000       0.00000000       0.00000000       0.00000000      -1.29706824
Yb       0.00000000       0.00000000       3.06060606       0.00000000       0.00000000       1.29706824
2
Properties=species:S:1:pos:R:3:forces:R:3 energy=-0.024259523106856487 pbc="F F F"
Yb       0.00000000       0.00000000       0.00000000       0.00000000       0.00000000      -1.15597749
Yb       0.00000000       0.00000000       3.11939394       0.00000000       0.00000000       1.15597749
2
Properties=species:S:1:pos:R:3:forces:R:3 energy=-0.08845378002355679 pbc="F F F"
Yb       0.00000000       0.00000000       0.00000000       0.00000000       0.00000000      -1.03070080
Yb       0.00000000       0.00000000       3.17818182       0.00000000       0.00000000       1.03070080
2
Properties=species:S:1:pos:R:3:forces:R:3 energy=-0.1457623331503246 pbc="F F F"
Yb       0.00000000       0.00000000       0.00000000       0.00000000       0.00000000      -0.92136312
Yb       0.00000000       0.00000000       3.23696970       0.00000000       0.00000000       0.92136312
2
Properties=species:S:1:pos:R:3:forces:R:3 energy=-0.197018656145533 pbc="F F F"
Yb       0.00000000       0.00000000       0.00000000       0.00000000       0.00000000      -0.82402223
Yb       0.00000000       0.00000000       3.29575758       0.00000000       0.00000000       0.82402223
2
Properties=species:S:1:pos:R:3:forces:R:3 energy=-0.24279011585505614 pbc="F F F"
Yb       0.00000000       0.00000000       0.00000000       0.00000000       0.00000000      -0.73418802
Yb       0.00000000       0.00000000       3.35454545       0.00000000       0.00000000       0.73418802
2
Properties=species:S:1:pos:R:3:forces:R:3 energy=-0.28344791531906216 pbc="F F F"
Yb       0.00000000       0.00000000       0.00000000       0.00000000       0.00000000      -0.64975810
Yb       0.00000000       0.00000000       3.41333333       0.00000000       0.00000000       0.64975810
2
Properties=species:S:1:pos:R:3:forces:R:3 energy=-0.3192763781802619 pbc="F F F"
Yb       0.00000000       0.00000000       0.00000000       0.00000000       0.00000000      -0.56982070
Yb       0.00000000       0.00000000       3.47212121       0.00000000       0.00000000       0.56982070
2
Properties=species:S:1:pos:R:3:forces:R:3 energy=-0.35050347259767783 pbc="F F F"
Yb       0.00000000       0.00000000       0.00000000       0.00000000       0.00000000      -0.49297568
Yb       0.00000000       0.00000000       3.53090909       0.00000000       0.00000000       0.49297568
2
Properties=species:S:1:pos:R:3:forces:R:3 energy=-0.37727316102711306 pbc="F F F"
Yb       0.00000000       0.00000000       0.00000000       0.00000000       0.00000000      -0.41800332
Yb       0.00000000       0.00000000       3.58969697       0.00000000       0.00000000       0.41800332
2
Properties=species:S:1:pos:R:3:forces:R:3 energy=-0.39968654760093103 pbc="F F F"
Yb       0.00000000       0.00000000       0.00000000       0.00000000       0.00000000      -0.34482715
Yb       0.00000000       0.00000000       3.64848485       0.00000000       0.00000000       0.34482715
2
Properties=species:S:1:pos:R:3:forces:R:3 energy=-0.4178675549430016 pbc="F F F"
Yb       0.00000000       0.00000000       0.00000000       0.00000000       0.00000000      -0.27425924
Yb       0.00000000       0.00000000       3.70727273       0.00000000       0.00000000       0.27425924
2
Properties=species:S:1:pos:R:3:forces:R:3 energy=-0.4320020755008282 pbc="F F F"
Yb       0.00000000       0.00000000       0.00000000       0.00000000       0.00000000      -0.20721854
Yb       0.00000000       0.00000000       3.76606061       0.00000000       0.00000000       0.20721854
2
Properties=species:S:1:pos:R:3:forces:R:3 energy=-0.44231275619696164 pbc="F F F"
Yb       0.00000000       0.00000000       0.00000000       0.00000000       0.00000000      -0.14427964
Yb       0.00000000       0.00000000       3.82484848       0.00000000       0.00000000       0.14427964
2
Properties=species:S:1:pos:R:3:forces:R:3 energy=-0.44904932230166167 pbc="F F F"
Yb       0.00000000       0.00000000       0.00000000       0.00000000       0.00000000      -0.08565525
Yb       0.00000000       0.00000000       3.88363636       0.00000000       0.00000000       0.08565525
2
Properties=species:S:1:pos:R:3:forces:R:3 energy=-0.4524678056741976 pbc="F F F"
Yb       0.00000000       0.00000000       0.00000000       0.00000000       0.00000000      -0.03137638
Yb       0.00000000       0.00000000       3.94242424       0.00000000       0.00000000       0.03137638
2
Properties=species:S:1:pos:R:3:forces:R:3 energy=-0.4528251601699337 pbc="F F F"
Yb       0.00000000       0.00000000       0.00000000       0.00000000       0.00000000       0.01856192
Yb       0.00000000       0.00000000       4.00121212       0.00000000       0.00000000      -0.01856192
2
Properties=species:S:1:pos:R:3:forces:R:3 energy=-0.4503727316399332 pbc="F F F"
Yb       0.00000000       0.00000000       0.00000000       0.00000000       0.00000000       0.06414290
Yb       0.00000000       0.00000000       4.06000000       0.00000000       0.00000000      -0.06414290
2
Properties=species:S:1:pos:R:3:forces:R:3 energy=-0.44536817885991314 pbc="F F F"
Yb       0.00000000       0.00000000       0.00000000       0.00000000       0.00000000       0.10532921
Yb       0.00000000       0.00000000       4.11878788       0.00000000       0.00000000      -0.10532921
2
Properties=species:S:1:pos:R:3:forces:R:3 energy=-0.4380750347069523 pbc="F F F"
Yb       0.00000000       0.00000000       0.00000000       0.00000000       0.00000000       0.14204611
Yb       0.00000000       0.00000000       4.17757576       0.00000000       0.00000000      -0.14204611
2
Properties=species:S:1:pos:R:3:forces:R:3 energy=-0.42875606845314174 pbc="F F F"
Yb       0.00000000       0.00000000       0.00000000       0.00000000       0.00000000       0.17419605
Yb       0.00000000       0.00000000       4.23636364       0.00000000       0.00000000      -0.17419605
2
Properties=species:S:1:pos:R:3:forces:R:3 energy=-0.4176857215455642 pbc="F F F"
Yb       0.00000000       0.00000000       0.00000000       0.00000000       0.00000000       0.20169199
Yb       0.00000000       0.00000000       4.29515152       0.00000000       0.00000000      -0.20169199
2
Properties=species:S:1:pos:R:3:forces:R:3 energy=-0.40513397117064653 pbc="F F F"
Yb       0.00000000       0.00000000       0.00000000       0.00000000       0.00000000       0.22452877
Yb       0.00000000       0.00000000       4.35393939       0.00000000       0.00000000      -0.22452877
2
Properties=species:S:1:pos:R:3:forces:R:3 energy=-0.3913758543260351 pbc="F F F"
Yb       0.00000000       0.00000000       0.00000000       0.00000000       0.00000000       0.24282536
Yb       0.00000000       0.00000000       4.41272727       0.00000000       0.00000000      -0.24282536
2
Properties=species:S:1:pos:R:3:forces:R:3 energy=-0.3766667419804569 pbc="F F F"
Yb       0.00000000       0.00000000       0.00000000       0.00000000       0.00000000       0.25682247
Yb       0.00000000       0.00000000       4.47151515       0.00000000       0.00000000      -0.25682247
2
Properties=species:S:1:pos:R:3:forces:R:3 energy=-0.36125719071771056 pbc="F F F"
Yb       0.00000000       0.00000000       0.00000000       0.00000000       0.00000000       0.26683474
Yb       0.00000000       0.00000000       4.53030303       0.00000000       0.00000000      -0.26683474
2
Properties=species:S:1:pos:R:3:forces:R:3 energy=-0.34536670402167685 pbc="F F F"
Yb       0.00000000       0.00000000       0.00000000       0.00000000       0.00000000       0.27319437
Yb       0.00000000       0.00000000       4.58909091       0.00000000       0.00000000      -0.27319437
2
Properties=species:S:1:pos:R:3:forces:R:3 energy=-0.3291990544218243 pbc="F F F"
Yb       0.00000000       0.00000000       0.00000000       0.00000000       0.00000000       0.27624920
Yb       0.00000000       0.00000000       4.64787879       0.00000000       0.00000000      -0.27624920
2
Properties=species:S:1:pos:R:3:forces:R:3 energy=-0.3129446866859328 pbc="F F F"
Yb       0.00000000       0.00000000       0.00000000       0.00000000       0.00000000       0.27638093
Yb       0.00000000       0.00000000       4.70666667       0.00000000       0.00000000      -0.27638093
2
Properties=species:S:1:pos:R:3:forces:R:3 energy=-0.29675260343469256 pbc="F F F"
Yb       0.00000000       0.00000000       0.00000000       0.00000000       0.00000000       0.27405971
Yb       0.00000000       0.00000000       4.76545455       0.00000000       0.00000000      -0.27405971
2
Properties=species:S:1:pos:R:3:forces:R:3 energy=-0.2807566418705599 pbc="F F F"
Yb       0.00000000       0.00000000       0.00000000       0.00000000       0.00000000       0.26985276
Yb       0.00000000       0.00000000       4.82424242       0.00000000       0.00000000      -0.26985276
2
Properties=species:S:1:pos:R:3:forces:R:3 energy=-0.2650511297401113 pbc="F F F"
Yb       0.00000000       0.00000000       0.00000000       0.00000000       0.00000000       0.26438215
Yb       0.00000000       0.00000000       4.88303030       0.00000000       0.00000000      -0.26438215
2
Properties=species:S:1:pos:R:3:forces:R:3 energy=-0.24968417159996328 pbc="F F F"
Yb       0.00000000       0.00000000       0.00000000       0.00000000       0.00000000       0.25821149
Yb       0.00000000       0.00000000       4.94181818       0.00000000       0.00000000      -0.25821149
2
Properties=species:S:1:pos:R:3:forces:R:3 energy=-0.23469532528791426 pbc="F F F"
Yb       0.00000000       0.00000000       0.00000000       0.00000000       0.00000000       0.25170398
Yb       0.00000000       0.00000000       5.00060606       0.00000000       0.00000000      -0.25170398
2
Properties=species:S:1:pos:R:3:forces:R:3 energy=-0.22009657912177102 pbc="F F F"
Yb       0.00000000       0.00000000       0.00000000       0.00000000       0.00000000       0.24491687
Yb       0.00000000       0.00000000       5.05939394       0.00000000       0.00000000      -0.24491687
2
Properties=species:S:1:pos:R:3:forces:R:3 energy=-0.20591032780960908 pbc="F F F"
Yb       0.00000000       0.00000000       0.00000000       0.00000000       0.00000000       0.23755857
Yb       0.00000000       0.00000000       5.11818182       0.00000000       0.00000000      -0.23755857
2
Properties=species:S:1:pos:R:3:forces:R:3 energy=-0.19218992713272956 pbc="F F F"
Yb       0.00000000       0.00000000       0.00000000       0.00000000       0.00000000       0.22904852
Yb       0.00000000       0.00000000       5.17696970       0.00000000       0.00000000      -0.22904852
2
Properties=species:S:1:pos:R:3:forces:R:3 energy=-0.17901764087720773 pbc="F F F"
Yb       0.00000000       0.00000000       0.00000000       0.00000000       0.00000000       0.21866134
Yb       0.00000000       0.00000000       5.23575758       0.00000000       0.00000000      -0.21866134
2
Properties=species:S:1:pos:R:3:forces:R:3 energy=-0.16653043438994594 pbc="F F F"
Yb       0.00000000       0.00000000       0.00000000       0.00000000       0.00000000       0.20574054
Yb       0.00000000       0.00000000       5.29454545       0.00000000       0.00000000      -0.20574054
2
Properties=species:S:1:pos:R:3:forces:R:3 energy=-0.15488358923483153 pbc="F F F"
Yb       0.00000000       0.00000000       0.00000000       0.00000000       0.00000000       0.18988083
Yb       0.00000000       0.00000000       5.35333333       0.00000000       0.00000000      -0.18988083
2
Properties=species:S:1:pos:R:3:forces:R:3 energy=-0.14426059639581726 pbc="F F F"
Yb       0.00000000       0.00000000       0.00000000       0.00000000       0.00000000       0.17110455
Yb       0.00000000       0.00000000       5.41212121       0.00000000       0.00000000      -0.17110455
2
Properties=species:S:1:pos:R:3:forces:R:3 energy=-0.1348145496559726 pbc="F F F"
Yb       0.00000000       0.00000000       0.00000000       0.00000000       0.00000000       0.14994274
Yb       0.00000000       0.00000000       5.47090909       0.00000000       0.00000000      -0.14994274
2
Properties=species:S:1:pos:R:3:forces:R:3 energy=-0.12665887661521597 pbc="F F F"
Yb       0.00000000       0.00000000       0.00000000       0.00000000       0.00000000       0.12737891
Yb       0.00000000       0.00000000       5.52969697       0.00000000       0.00000000      -0.12737891
2
Properties=species:S:1:pos:R:3:forces:R:3 energy=-0.11983919896233652 pbc="F F F"
Yb       0.00000000       0.00000000       0.00000000       0.00000000       0.00000000       0.10475455
Yb       0.00000000       0.00000000       5.58848485       0.00000000       0.00000000      -0.10475455
2
Properties=species:S:1:pos:R:3:forces:R:3 energy=-0.11431467246938126 pbc="F F F"
Yb       0.00000000       0.00000000       0.00000000       0.00000000       0.00000000       0.08354775
Yb       0.00000000       0.00000000       5.64727273       0.00000000       0.00000000      -0.08354775
2
Properties=species:S:1:pos:R:3:forces:R:3 energy=-0.1099626349859954 pbc="F F F"
Yb       0.00000000       0.00000000       0.00000000       0.00000000       0.00000000       0.06513655
Yb       0.00000000       0.00000000       5.70606061       0.00000000       0.00000000      -0.06513655
2
Properties=species:S:1:pos:R:3:forces:R:3 energy=-0.10658045993507873 pbc="F F F"
Yb       0.00000000       0.00000000       0.00000000       0.00000000       0.00000000       0.05053475
Yb       0.00000000       0.00000000       5.76484848       0.00000000       0.00000000      -0.05053475
2
Properties=species:S:1:pos:R:3:forces:R:3 energy=-0.10393282971571279 pbc="F F F"
Yb       0.00000000       0.00000000       0.00000000       0.00000000       0.00000000       0.04026001
Yb       0.00000000       0.00000000       5.82363636       0.00000000       0.00000000      -0.04026001
2
Properties=species:S:1:pos:R:3:forces:R:3 energy=-0.10176580006342373 pbc="F F F"
Yb       0.00000000       0.00000000       0.00000000       0.00000000       0.00000000       0.03412010
Yb       0.00000000       0.00000000       5.88242424       0.00000000       0.00000000      -0.03412010
2
Properties=species:S:1:pos:R:3:forces:R:3 energy=-0.09985652099534348 pbc="F F F"
Yb       0.00000000       0.00000000       0.00000000       0.00000000       0.00000000       0.03125640
Yb       0.00000000       0.00000000       5.94121212       0.00000000       0.00000000      -0.03125640
2
Properties=species:S:1:pos:R:3:forces:R:3 energy=-0.09805512245240011 pbc="F F F"
Yb       0.00000000       0.00000000       0.00000000       0.00000000       0.00000000       0.03022114
Yb       0.00000000       0.00000000       6.00000000       0.00000000       0.00000000      -0.03022114
