2
Properties=species:S:1:pos:R:3:forces:R:3 energy=-7920.913909827295 pbc="F F F"
Zn       0.00000000       0.00000000       0.00000000       0.00000000       0.00000000   59418.85546875
Zn       0.00000000       0.00000000       0.18000000       0.00000000       0.00000000  -59418.85546875
2
Properties=species:S:1:pos:R:3:forces:R:3 energy=-4737.429534827295 pbc="F F F"
Zn       0.00000000       0.00000000       0.00000000       0.00000000       0.00000000   47292.24609375
Zn       0.00000000       0.00000000       0.23878788       0.00000000       0.00000000  -47292.24609375
2
Properties=species:S:1:pos:R:3:forces:R:3 energy=-2450.6263121678776 pbc="F F F"
Zn       0.00000000       0.00000000       0.00000000       0.00000000       0.00000000   30434.58007812
Zn       0.00000000       0.00000000       0.29757576       0.00000000       0.00000000  -30434.58007812
2
Properties=species:S:1:pos:R:3:forces:R:3 energy=-1108.4270934147098 pbc="F F F"
Zn       0.00000000       0.00000000       0.00000000       0.00000000       0.00000000   16083.01855469
Zn       0.00000000       0.00000000       0.35636364       0.00000000       0.00000000  -16083.01855469
2
Properties=species:S:1:pos:R:3:forces:R:3 energy=-453.2915953614993 pbc="F F F"
Zn       0.00000000       0.00000000       0.00000000       0.00000000       0.00000000    7150.09716797
Zn       0.00000000       0.00000000       0.41515152       0.00000000       0.00000000   -7150.09716797
2
Properties=species:S:1:pos:R:3:forces:R:3 energy=-175.4674681420589 pbc="F F F"
Zn       0.00000000       0.00000000       0.00000000       0.00000000       0.00000000    2775.39770508
Zn       0.00000000       0.00000000       0.47393939       0.00000000       0.00000000   -2775.39770508
2
Properties=species:S:1:pos:R:3:forces:R:3 energy=-73.74926742678691 pbc="F F F"
Zn       0.00000000       0.00000000       0.00000000       0.00000000       0.00000000    1081.33703613
Zn       0.00000000       0.00000000       0.53272727       0.00000000       0.00000000   -1081.33703613
2
Properties=species:S:1:pos:R:3:forces:R:3 energy=-25.463071621096876 pbc="F F F"
Zn       0.00000000       0.00000000       0.00000000       0.00000000       0.00000000     626.03454590
Zn       0.00000000       0.00000000       0.59151515       0.00000000       0.00000000    -626.03454590
2
Properties=species:S:1:pos:R:3:forces:R:3 energy=-1.7933008084413626 pbc="F F F"
Zn       0.00000000       0.00000000       0.00000000       0.00000000       0.00000000     198.17610168
Zn       0.00000000       0.00000000       0.65030303       0.00000000       0.00000000    -198.17610168
2
Properties=species:S:1:pos:R:3:forces:R:3 energy=3.538357223783583 pbc="F F F"
Zn       0.00000000       0.00000000       0.00000000       0.00000000       0.00000000      45.56336975
Zn       0.00000000       0.00000000       0.70909091       0.00000000       0.00000000     -45.56336975
2
Properties=species:S:1:pos:R:3:forces:R:3 energy=5.477037140660528 pbc="F F F"
Zn       0.00000000       0.00000000       0.00000000       0.00000000       0.00000000      15.77416134
Zn       0.00000000       0.00000000       0.76787879       0.00000000       0.00000000     -15.77416134
2
Properties=species:S:1:pos:R:3:forces:R:3 energy=9.028465314468377 pbc="F F F"
Zn       0.00000000       0.00000000       0.00000000       0.00000000       0.00000000     160.50358582
Zn       0.00000000       0.00000000       0.82666667       0.00000000       0.00000000    -160.50358582
2
Properties=species:S:1:pos:R:3:forces:R:3 energy=19.916951694982178 pbc="F F F"
Zn       0.00000000       0.00000000       0.00000000       0.00000000       0.00000000     201.76420593
Zn       0.00000000       0.00000000       0.88545455       0.00000000       0.00000000    -201.76420593
2
Properties=species:S:1:pos:R:3:forces:R:3 energy=39.236673575813015 pbc="F F F"
Zn       0.00000000       0.00000000       0.00000000       0.00000000       0.00000000     382.33926392
Zn       0.00000000       0.00000000       0.94424242       0.00000000       0.00000000    -382.33926392
2
Properties=species:S:1:pos:R:3:forces:R:3 energy=64.00495451744267 pbc="F F F"
Zn       0.00000000       0.00000000       0.00000000       0.00000000       0.00000000     143.83592224
Zn       0.00000000       0.00000000       1.00303030       0.00000000       0.00000000    -143.83592224
2
Properties=species:S:1:pos:R:3:forces:R:3 energy=62.81504485471796 pbc="F F F"
Zn       0.00000000       0.00000000       0.00000000       0.00000000       0.00000000    -131.81867981
Zn       0.00000000       0.00000000       1.06181818       0.00000000       0.00000000     131.81867981
2
Properties=species:S:1:pos:R:3:forces:R:3 energy=51.80451028913089 pbc="F F F"
Zn       0.00000000       0.00000000       0.00000000       0.00000000       0.00000000    -232.86062622
Zn       0.00000000       0.00000000       1.12060606       0.00000000       0.00000000     232.86062622
2
Properties=species:S:1:pos:R:3:forces:R:3 energy=39.18948022503027 pbc="F F F"
Zn       0.00000000       0.00000000       0.00000000       0.00000000       0.00000000    -178.71723938
Zn       0.00000000       0.00000000       1.17939394       0.00000000       0.00000000     178.71723938
2
Properties=species:S:1:pos:R:3:forces:R:3 energy=30.637568772283295 pbc="F F F"
Zn       0.00000000       0.00000000       0.00000000       0.00000000       0.00000000    -128.34547424
Zn       0.00000000       0.00000000       1.23818182       0.00000000       0.00000000     128.34547424
2
Properties=species:S:1:pos:R:3:forces:R:3 energy=23.86582470895802 pbc="F F F"
Zn       0.00000000       0.00000000       0.00000000       0.00000000       0.00000000     -99.47391510
Zn       0.00000000       0.00000000       1.29696970       0.00000000       0.00000000      99.47391510
2
Properties=species:S:1:pos:R:3:forces:R:3 energy=18.901305856989737 pbc="F F F"
Zn       0.00000000       0.00000000       0.00000000       0.00000000       0.00000000     -73.29039764
Zn       0.00000000       0.00000000       1.35575758       0.00000000       0.00000000      73.29039764
2
Properties=species:S:1:pos:R:3:forces:R:3 energy=14.963504361898124 pbc="F F F"
Zn       0.00000000       0.00000000       0.00000000       0.00000000       0.00000000     -60.83385086
Zn       0.00000000       0.00000000       1.41454545       0.00000000       0.00000000      60.83385086
2
Properties=species:S:1:pos:R:3:forces:R:3 energy=11.703678904555192 pbc="F F F"
Zn       0.00000000       0.00000000       0.00000000       0.00000000       0.00000000     -50.48499680
Zn       0.00000000       0.00000000       1.47333333       0.00000000       0.00000000      50.48499680
2
Properties=species:S:1:pos:R:3:forces:R:3 energy=8.998305053547258 pbc="F F F"
Zn       0.00000000       0.00000000       0.00000000       0.00000000       0.00000000     -41.59499359
Zn       0.00000000       0.00000000       1.53212121       0.00000000       0.00000000      41.59499359
2
Properties=species:S:1:pos:R:3:forces:R:3 energy=6.824546383455078 pbc="F F F"
Zn       0.00000000       0.00000000       0.00000000       0.00000000       0.00000000     -32.82875061
Zn       0.00000000       0.00000000       1.59090909       0.00000000       0.00000000      32.82875061
2
Properties=species:S:1:pos:R:3:forces:R:3 energy=5.090546579360626 pbc="F F F"
Zn       0.00000000       0.00000000       0.00000000       0.00000000       0.00000000     -25.76045227
Zn       0.00000000       0.00000000       1.64969697       0.00000000       0.00000000      25.76045227
2
Properties=species:S:1:pos:R:3:forces:R:3 energy=3.7680917648204906 pbc="F F F"
Zn       0.00000000       0.00000000       0.00000000       0.00000000       0.00000000     -19.57086563
Zn       0.00000000       0.00000000       1.70848485       0.00000000       0.00000000      19.57086563
2
Properties=species:S:1:pos:R:3:forces:R:3 energy=2.7678399825800453 pbc="F F F"
Zn       0.00000000       0.00000000       0.00000000       0.00000000       0.00000000     -14.81778145
Zn       0.00000000       0.00000000       1.76727273       0.00000000       0.00000000      14.81778145
2
Properties=species:S:1:pos:R:3:forces:R:3 energy=1.9823236479562167 pbc="F F F"
Zn       0.00000000       0.00000000       0.00000000       0.00000000       0.00000000     -12.01574993
Zn       0.00000000       0.00000000       1.82606061       0.00000000       0.00000000      12.01574993
2
Properties=species:S:1:pos:R:3:forces:R:3 energy=1.3563917035229407 pbc="F F F"
Zn       0.00000000       0.00000000       0.00000000       0.00000000       0.00000000      -9.35361767
Zn       0.00000000       0.00000000       1.88484848       0.00000000       0.00000000       9.35361767
2
Properties=species:S:1:pos:R:3:forces:R:3 energy=0.8745942625262058 pbc="F F F"
Zn       0.00000000       0.00000000       0.00000000       0.00000000       0.00000000      -7.09884357
Zn       0.00000000       0.00000000       1.94363636       0.00000000       0.00000000       7.09884357
2
Properties=species:S:1:pos:R:3:forces:R:3 energy=0.5114271016233976 pbc="F F F"
Zn       0.00000000       0.00000000       0.00000000       0.00000000       0.00000000      -5.34289265
Zn       0.00000000       0.00000000       2.00242424       0.00000000       0.00000000       5.34289265
2
Properties=species:S:1:pos:R:3:forces:R:3 energy=0.23994576414363844 pbc="F F F"
Zn       0.00000000       0.00000000       0.00000000       0.00000000       0.00000000      -3.93578553
Zn       0.00000000       0.00000000       2.06121212       0.00000000       0.00000000       3.93578553
2
Properties=species:S:1:pos:R:3:forces:R:3 energy=0.0427111659605752 pbc="F F F"
Zn       0.00000000       0.00000000       0.00000000       0.00000000       0.00000000      -2.82047105
Zn       0.00000000       0.00000000       2.12000000       0.00000000       0.00000000       2.82047105
2
Properties=species:S:1:pos:R:3:forces:R:3 energy=-0.09725259855127635 pbc="F F F"
Zn       0.00000000       0.00000000       0.00000000       0.00000000       0.00000000      -1.99264765
Zn       0.00000000       0.00000000       2.17878788       0.00000000       0.00000000       1.99264765
2
Properties=species:S:1:pos:R:3:forces:R:3 energy=-0.19594471828937632 pbc="F F F"
Zn       0.00000000       0.00000000       0.00000000       0.00000000       0.00000000      -1.38919544
Zn       0.00000000       0.00000000       2.23757576       0.00000000       0.00000000       1.38919544
2
Properties=species:S:1:pos:R:3:forces:R:3 energy=-0.26369304345119504 pbc="F F F"
Zn       0.00000000       0.00000000       0.00000000       0.00000000       0.00000000      -0.94018698
Zn       0.00000000       0.00000000       2.29636364       0.00000000       0.00000000       0.94018698
2
Properties=species:S:1:pos:R:3:forces:R:3 energy=-0.308555501617734 pbc="F F F"
Zn       0.00000000       0.00000000       0.00000000       0.00000000       0.00000000      -0.60190785
Zn       0.00000000       0.00000000       2.35515152       0.00000000       0.00000000       0.60190785
2
Properties=species:S:1:pos:R:3:forces:R:3 energy=-0.3365852675954055 pbc="F F F"
Zn       0.00000000       0.00000000       0.00000000       0.00000000       0.00000000      -0.36819240
Zn       0.00000000       0.00000000       2.41393939       0.00000000       0.00000000       0.36819240
2
Properties=species:S:1:pos:R:3:forces:R:3 energy=-0.3534066065760321 pbc="F F F"
Zn       0.00000000       0.00000000       0.00000000       0.00000000       0.00000000      -0.21595126
Zn       0.00000000       0.00000000       2.47272727       0.00000000       0.00000000       0.21595126
2
Properties=species:S:1:pos:R:3:forces:R:3 energy=-0.36312505149283575 pbc="F F F"
Zn       0.00000000       0.00000000       0.00000000       0.00000000       0.00000000      -0.12136224
Zn       0.00000000       0.00000000       2.53151515       0.00000000       0.00000000       0.12136224
2
Properties=species:S:1:pos:R:3:forces:R:3 energy=-0.3682539987555794 pbc="F F F"
Zn       0.00000000       0.00000000       0.00000000       0.00000000       0.00000000      -0.05711905
Zn       0.00000000       0.00000000       2.59030303       0.00000000       0.00000000       0.05711905
2
Properties=species:S:1:pos:R:3:forces:R:3 energy=-0.37015861720551635 pbc="F F F"
Zn       0.00000000       0.00000000       0.00000000       0.00000000       0.00000000      -0.00877465
Zn       0.00000000       0.00000000       2.64909091       0.00000000       0.00000000       0.00877465
2
Properties=species:S:1:pos:R:3:forces:R:3 energy=-0.3692734239390319 pbc="F F F"
Zn       0.00000000       0.00000000       0.00000000       0.00000000       0.00000000       0.03954249
Zn       0.00000000       0.00000000       2.70787879       0.00000000       0.00000000      -0.03954249
2
Properties=species:S:1:pos:R:3:forces:R:3 energy=-0.3654784546491035 pbc="F F F"
Zn       0.00000000       0.00000000       0.00000000       0.00000000       0.00000000       0.08894775
Zn       0.00000000       0.00000000       2.76666667       0.00000000       0.00000000      -0.08894775
2
Properties=species:S:1:pos:R:3:forces:R:3 energy=-0.35900144571036635 pbc="F F F"
Zn       0.00000000       0.00000000       0.00000000       0.00000000       0.00000000       0.12914282
Zn       0.00000000       0.00000000       2.82545455       0.00000000       0.00000000      -0.12914282
2
Properties=species:S:1:pos:R:3:forces:R:3 energy=-0.3505778644497471 pbc="F F F"
Zn       0.00000000       0.00000000       0.00000000       0.00000000       0.00000000       0.15520316
Zn       0.00000000       0.00000000       2.88424242       0.00000000       0.00000000      -0.15520316
2
Properties=species:S:1:pos:R:3:forces:R:3 energy=-0.34095778588441855 pbc="F F F"
Zn       0.00000000       0.00000000       0.00000000       0.00000000       0.00000000       0.17092666
Zn       0.00000000       0.00000000       2.94303030       0.00000000       0.00000000      -0.17092666
2
Properties=species:S:1:pos:R:3:forces:R:3 energy=-0.33054682357338067 pbc="F F F"
Zn       0.00000000       0.00000000       0.00000000       0.00000000       0.00000000       0.18318622
Zn       0.00000000       0.00000000       3.00181818       0.00000000       0.00000000      -0.18318622
2
Properties=species:S:1:pos:R:3:forces:R:3 energy=-0.3194041285887795 pbc="F F F"
Zn       0.00000000       0.00000000       0.00000000       0.00000000       0.00000000       0.19601323
Zn       0.00000000       0.00000000       3.06060606       0.00000000       0.00000000      -0.19601323
2
Properties=species:S:1:pos:R:3:forces:R:3 energy=-0.30751786054134983 pbc="F F F"
Zn       0.00000000       0.00000000       0.00000000       0.00000000       0.00000000       0.20791680
Zn       0.00000000       0.00000000       3.11939394       0.00000000       0.00000000      -0.20791680
2
Properties=species:S:1:pos:R:3:forces:R:3 energy=-0.2950392063124093 pbc="F F F"
Zn       0.00000000       0.00000000       0.00000000       0.00000000       0.00000000       0.21577883
Zn       0.00000000       0.00000000       3.17818182       0.00000000       0.00000000      -0.21577883
2
Properties=species:S:1:pos:R:3:forces:R:3 energy=-0.28224808464071566 pbc="F F F"
Zn       0.00000000       0.00000000       0.00000000       0.00000000       0.00000000       0.21855530
Zn       0.00000000       0.00000000       3.23696970       0.00000000       0.00000000      -0.21855530
2
Properties=species:S:1:pos:R:3:forces:R:3 energy=-0.2694338329668532 pbc="F F F"
Zn       0.00000000       0.00000000       0.00000000       0.00000000       0.00000000       0.21669438
Zn       0.00000000       0.00000000       3.29575758       0.00000000       0.00000000      -0.21669438
2
Properties=species:S:1:pos:R:3:forces:R:3 energy=-0.256843946606808 pbc="F F F"
Zn       0.00000000       0.00000000       0.00000000       0.00000000       0.00000000       0.21104914
Zn       0.00000000       0.00000000       3.35454545       0.00000000       0.00000000      -0.21104914
2
Properties=species:S:1:pos:R:3:forces:R:3 energy=-0.2446741697097763 pbc="F F F"
Zn       0.00000000       0.00000000       0.00000000       0.00000000       0.00000000       0.20260957
Zn       0.00000000       0.00000000       3.41333333       0.00000000       0.00000000      -0.20260957
2
Properties=species:S:1:pos:R:3:forces:R:3 energy=-0.23305430418501624 pbc="F F F"
Zn       0.00000000       0.00000000       0.00000000       0.00000000       0.00000000       0.19254087
Zn       0.00000000       0.00000000       3.47212121       0.00000000       0.00000000      -0.19254087
2
Properties=species:S:1:pos:R:3:forces:R:3 energy=-0.2220442009355127 pbc="F F F"
Zn       0.00000000       0.00000000       0.00000000       0.00000000       0.00000000       0.18204859
Zn       0.00000000       0.00000000       3.53090909       0.00000000       0.00000000      -0.18204859
2
Properties=species:S:1:pos:R:3:forces:R:3 energy=-0.2116409345901056 pbc="F F F"
Zn       0.00000000       0.00000000       0.00000000       0.00000000       0.00000000       0.17196949
Zn       0.00000000       0.00000000       3.58969697       0.00000000       0.00000000      -0.17196949
2
Properties=species:S:1:pos:R:3:forces:R:3 energy=-0.20181064305521854 pbc="F F F"
Zn       0.00000000       0.00000000       0.00000000       0.00000000       0.00000000       0.16258471
Zn       0.00000000       0.00000000       3.64848485       0.00000000       0.00000000      -0.16258471
2
Properties=species:S:1:pos:R:3:forces:R:3 energy=-0.1925130276077074 pbc="F F F"
Zn       0.00000000       0.00000000       0.00000000       0.00000000       0.00000000       0.15382488
Zn       0.00000000       0.00000000       3.70727273       0.00000000       0.00000000      -0.15382488
2
Properties=species:S:1:pos:R:3:forces:R:3 energy=-0.18371523502542486 pbc="F F F"
Zn       0.00000000       0.00000000       0.00000000       0.00000000       0.00000000       0.14554942
Zn       0.00000000       0.00000000       3.76606061       0.00000000       0.00000000      -0.14554942
2
Properties=species:S:1:pos:R:3:forces:R:3 energy=-0.17539205482411174 pbc="F F F"
Zn       0.00000000       0.00000000       0.00000000       0.00000000       0.00000000       0.13765614
Zn       0.00000000       0.00000000       3.82484848       0.00000000       0.00000000      -0.13765614
2
Properties=species:S:1:pos:R:3:forces:R:3 energy=-0.1675244222216569 pbc="F F F"
Zn       0.00000000       0.00000000       0.00000000       0.00000000       0.00000000       0.13005133
Zn       0.00000000       0.00000000       3.88363636       0.00000000       0.00000000      -0.13005133
2
Properties=species:S:1:pos:R:3:forces:R:3 energy=-0.16009823238084636 pbc="F F F"
Zn       0.00000000       0.00000000       0.00000000       0.00000000       0.00000000       0.12261439
Zn       0.00000000       0.00000000       3.94242424       0.00000000       0.00000000      -0.12261439
2
Properties=species:S:1:pos:R:3:forces:R:3 energy=-0.1531070050273392 pbc="F F F"
Zn       0.00000000       0.00000000       0.00000000       0.00000000       0.00000000       0.11522647
Zn       0.00000000       0.00000000       4.00121212       0.00000000       0.00000000      -0.11522647
2
Properties=species:S:1:pos:R:3:forces:R:3 energy=-0.1465501996805032 pbc="F F F"
Zn       0.00000000       0.00000000       0.00000000       0.00000000       0.00000000       0.10785396
Zn       0.00000000       0.00000000       4.06000000       0.00000000       0.00000000      -0.10785396
2
Properties=species:S:1:pos:R:3:forces:R:3 energy=-0.14042371142039015 pbc="F F F"
Zn       0.00000000       0.00000000       0.00000000       0.00000000       0.00000000       0.10060561
Zn       0.00000000       0.00000000       4.11878788       0.00000000       0.00000000      -0.10060561
2
Properties=species:S:1:pos:R:3:forces:R:3 energy=-0.1347145369799755 pbc="F F F"
Zn       0.00000000       0.00000000       0.00000000       0.00000000       0.00000000       0.09370358
Zn       0.00000000       0.00000000       4.17757576       0.00000000       0.00000000      -0.09370358
2
Properties=species:S:1:pos:R:3:forces:R:3 energy=-0.12939512322326527 pbc="F F F"
Zn       0.00000000       0.00000000       0.00000000       0.00000000       0.00000000       0.08738681
Zn       0.00000000       0.00000000       4.23636364       0.00000000       0.00000000      -0.08738681
2
Properties=species:S:1:pos:R:3:forces:R:3 energy=-0.12442559293997957 pbc="F F F"
Zn       0.00000000       0.00000000       0.00000000       0.00000000       0.00000000       0.08181500
Zn       0.00000000       0.00000000       4.29515152       0.00000000       0.00000000      -0.08181500
2
Properties=species:S:1:pos:R:3:forces:R:3 energy=-0.11976015046896692 pbc="F F F"
Zn       0.00000000       0.00000000       0.00000000       0.00000000       0.00000000       0.07702022
Zn       0.00000000       0.00000000       4.35393939       0.00000000       0.00000000      -0.07702022
2
Properties=species:S:1:pos:R:3:forces:R:3 energy=-0.11535612342919517 pbc="F F F"
Zn       0.00000000       0.00000000       0.00000000       0.00000000       0.00000000       0.07290900
Zn       0.00000000       0.00000000       4.41272727       0.00000000       0.00000000      -0.07290900
2
Properties=species:S:1:pos:R:3:forces:R:3 energy=-0.11117798732519699 pbc="F F F"
Zn       0.00000000       0.00000000       0.00000000       0.00000000       0.00000000       0.06930196
Zn       0.00000000       0.00000000       4.47151515       0.00000000       0.00000000      -0.06930196
2
Properties=species:S:1:pos:R:3:forces:R:3 energy=-0.10720234382683155 pbc="F F F"
Zn       0.00000000       0.00000000       0.00000000       0.00000000       0.00000000       0.06598200
Zn       0.00000000       0.00000000       4.53030303       0.00000000       0.00000000      -0.06598200
2
Properties=species:S:1:pos:R:3:forces:R:3 energy=-0.10341849347302527 pbc="F F F"
Zn       0.00000000       0.00000000       0.00000000       0.00000000       0.00000000       0.06274601
Zn       0.00000000       0.00000000       4.58909091       0.00000000       0.00000000      -0.06274601
2
Properties=species:S:1:pos:R:3:forces:R:3 energy=-0.09982630257584846 pbc="F F F"
Zn       0.00000000       0.00000000       0.00000000       0.00000000       0.00000000       0.05944581
Zn       0.00000000       0.00000000       4.64787879       0.00000000       0.00000000      -0.05944581
2
Properties=species:S:1:pos:R:3:forces:R:3 energy=-0.09643169544226739 pbc="F F F"
Zn       0.00000000       0.00000000       0.00000000       0.00000000       0.00000000       0.05601503
Zn       0.00000000       0.00000000       4.70666667       0.00000000       0.00000000      -0.05601503
2
Properties=species:S:1:pos:R:3:forces:R:3 energy=-0.09324254265358987 pbc="F F F"
Zn       0.00000000       0.00000000       0.00000000       0.00000000       0.00000000       0.05247806
Zn       0.00000000       0.00000000       4.76545455       0.00000000       0.00000000      -0.05247806
2
Properties=species:S:1:pos:R:3:forces:R:3 energy=-0.09026136037244435 pbc="F F F"
Zn       0.00000000       0.00000000       0.00000000       0.00000000       0.00000000       0.04893632
Zn       0.00000000       0.00000000       4.82424242       0.00000000       0.00000000      -0.04893632
2
Properties=species:S:1:pos:R:3:forces:R:3 energy=-0.08748580935469305 pbc="F F F"
Zn       0.00000000       0.00000000       0.00000000       0.00000000       0.00000000       0.04553714
Zn       0.00000000       0.00000000       4.88303030       0.00000000       0.00000000      -0.04553714
2
Properties=species:S:1:pos:R:3:forces:R:3 energy=-0.0849020223970394 pbc="F F F"
Zn       0.00000000       0.00000000       0.00000000       0.00000000       0.00000000       0.04243333
Zn       0.00000000       0.00000000       4.94181818       0.00000000       0.00000000      -0.04243333
2
Properties=species:S:1:pos:R:3:forces:R:3 energy=-0.08248851882069116 pbc="F F F"
Zn       0.00000000       0.00000000       0.00000000       0.00000000       0.00000000       0.03973741
Zn       0.00000000       0.00000000       5.00060606       0.00000000       0.00000000      -0.03973741
2
Properties=species:S:1:pos:R:3:forces:R:3 energy=-0.08022057361742707 pbc="F F F"
Zn       0.00000000       0.00000000       0.00000000       0.00000000       0.00000000       0.03748826
Zn       0.00000000       0.00000000       5.05939394       0.00000000       0.00000000      -0.03748826
2
Properties=species:S:1:pos:R:3:forces:R:3 energy=-0.07807306421734626 pbc="F F F"
Zn       0.00000000       0.00000000       0.00000000       0.00000000       0.00000000       0.03563419
Zn       0.00000000       0.00000000       5.11818182       0.00000000       0.00000000      -0.03563419
2
Properties=species:S:1:pos:R:3:forces:R:3 energy=-0.07602606815778494 pbc="F F F"
Zn       0.00000000       0.00000000       0.00000000       0.00000000       0.00000000       0.03404274
Zn       0.00000000       0.00000000       5.17696970       0.00000000       0.00000000      -0.03404274
2
Properties=species:S:1:pos:R:3:forces:R:3 energy=-0.07406895262911585 pbc="F F F"
Zn       0.00000000       0.00000000       0.00000000       0.00000000       0.00000000       0.03252576
Zn       0.00000000       0.00000000       5.23575758       0.00000000       0.00000000      -0.03252576
2
Properties=species:S:1:pos:R:3:forces:R:3 energy=-0.0722042382732572 pbc="F F F"
Zn       0.00000000       0.00000000       0.00000000       0.00000000       0.00000000       0.03088393
Zn       0.00000000       0.00000000       5.29454545       0.00000000       0.00000000      -0.03088393
2
Properties=species:S:1:pos:R:3:forces:R:3 energy=-0.07044359675298223 pbc="F F F"
Zn       0.00000000       0.00000000       0.00000000       0.00000000       0.00000000       0.02895140
Zn       0.00000000       0.00000000       5.35333333       0.00000000       0.00000000      -0.02895140
2
Properties=species:S:1:pos:R:3:forces:R:3 energy=-0.06880763292418417 pbc="F F F"
Zn       0.00000000       0.00000000       0.00000000       0.00000000       0.00000000       0.02663403
Zn       0.00000000       0.00000000       5.41212121       0.00000000       0.00000000      -0.02663403
2
Properties=species:S:1:pos:R:3:forces:R:3 energy=-0.06731951247459446 pbc="F F F"
Zn       0.00000000       0.00000000       0.00000000       0.00000000       0.00000000       0.02392882
Zn       0.00000000       0.00000000       5.47090909       0.00000000       0.00000000      -0.02392882
2
Properties=species:S:1:pos:R:3:forces:R:3 energy=-0.06599996463708807 pbc="F F F"
Zn       0.00000000       0.00000000       0.00000000       0.00000000       0.00000000       0.02092883
Zn       0.00000000       0.00000000       5.52969697       0.00000000       0.00000000      -0.02092883
2
Properties=species:S:1:pos:R:3:forces:R:3 energy=-0.06486181915320816 pbc="F F F"
Zn       0.00000000       0.00000000       0.00000000       0.00000000       0.00000000       0.01780052
Zn       0.00000000       0.00000000       5.58848485       0.00000000       0.00000000      -0.01780052
2
Properties=species:S:1:pos:R:3:forces:R:3 energy=-0.0639057677997632 pbc="F F F"
Zn       0.00000000       0.00000000       0.00000000       0.00000000       0.00000000       0.01475389
Zn       0.00000000       0.00000000       5.64727273       0.00000000       0.00000000      -0.01475389
2
Properties=species:S:1:pos:R:3:forces:R:3 energy=-0.06312129826425497 pbc="F F F"
Zn       0.00000000       0.00000000       0.00000000       0.00000000       0.00000000       0.01200106
Zn       0.00000000       0.00000000       5.70606061       0.00000000       0.00000000      -0.01200106
2
Properties=species:S:1:pos:R:3:forces:R:3 energy=-0.062485053725224164 pbc="F F F"
Zn       0.00000000       0.00000000       0.00000000       0.00000000       0.00000000       0.00971170
Zn       0.00000000       0.00000000       5.76484848       0.00000000       0.00000000      -0.00971170
2
Properties=species:S:1:pos:R:3:forces:R:3 energy=-0.061968021839578134 pbc="F F F"
Zn       0.00000000       0.00000000       0.00000000       0.00000000       0.00000000       0.00798731
Zn       0.00000000       0.00000000       5.82363636       0.00000000       0.00000000      -0.00798731
2
Properties=species:S:1:pos:R:3:forces:R:3 energy=-0.06153525751819051 pbc="F F F"
Zn       0.00000000       0.00000000       0.00000000       0.00000000       0.00000000       0.00682812
Zn       0.00000000       0.00000000       5.88242424       0.00000000       0.00000000      -0.00682812
2
Properties=species:S:1:pos:R:3:forces:R:3 energy=-0.06115569530955456 pbc="F F F"
Zn       0.00000000       0.00000000       0.00000000       0.00000000       0.00000000       0.00613372
Zn       0.00000000       0.00000000       5.94121212       0.00000000       0.00000000      -0.00613372
2
Properties=species:S:1:pos:R:3:forces:R:3 energy=-0.06080859145315219 pbc="F F F"
Zn       0.00000000       0.00000000       0.00000000       0.00000000       0.00000000       0.00571529
Zn       0.00000000       0.00000000       6.00000000       0.00000000       0.00000000      -0.00571529
