2
Properties=species:S:1:pos:R:3:forces:R:3 energy=-29340948.060831822 pbc="F F F"
Zr       0.00000000       0.00000000       0.00000000       0.00000000       0.00000000 206762336.00000000
Zr       0.00000000       0.00000000       0.18000000       0.00000000       0.00000000 -206762336.00000000
2
Properties=species:S:1:pos:R:3:forces:R:3 energy=-17764278.060831822 pbc="F F F"
Zr       0.00000000       0.00000000       0.00000000       0.00000000       0.00000000 193852736.00000000
Zr       0.00000000       0.00000000       0.23878788       0.00000000       0.00000000 -193852736.00000000
2
Properties=species:S:1:pos:R:3:forces:R:3 energy=-8380040.5608318215 pbc="F F F"
Zr       0.00000000       0.00000000       0.00000000       0.00000000       0.00000000 123016864.00000000
Zr       0.00000000       0.00000000       0.29757576       0.00000000       0.00000000 -123016864.00000000
2
Properties=species:S:1:pos:R:3:forces:R:3 energy=-2081479.1858318218 pbc="F F F"
Zr       0.00000000       0.00000000       0.00000000       0.00000000       0.00000000 74554064.00000000
Zr       0.00000000       0.00000000       0.35636364       0.00000000       0.00000000 -74554064.00000000
2
Properties=species:S:1:pos:R:3:forces:R:3 energy=128213.65791818457 pbc="F F F"
Zr       0.00000000       0.00000000       0.00000000       0.00000000       0.00000000 14150558.00000000
Zr       0.00000000       0.00000000       0.41515152       0.00000000       0.00000000 -14150558.00000000
2
Properties=species:S:1:pos:R:3:forces:R:3 energy=349064.40791819093 pbc="F F F"
Zr       0.00000000       0.00000000       0.00000000       0.00000000       0.00000000 -1901007.75000000
Zr       0.00000000       0.00000000       0.47393939       0.00000000       0.00000000 1901007.75000000
2
Properties=species:S:1:pos:R:3:forces:R:3 energy=197807.1422932036 pbc="F F F"
Zr       0.00000000       0.00000000       0.00000000       0.00000000       0.00000000 -2761068.00000000
Zr       0.00000000       0.00000000       0.53272727       0.00000000       0.00000000 2761068.00000000
2
Properties=species:S:1:pos:R:3:forces:R:3 energy=69014.34541822893 pbc="F F F"
Zr       0.00000000       0.00000000       0.00000000       0.00000000       0.00000000 -1168156.25000000
Zr       0.00000000       0.00000000       0.59151515       0.00000000       0.00000000 1168156.25000000
2
Properties=species:S:1:pos:R:3:forces:R:3 energy=30020.98994952328 pbc="F F F"
Zr       0.00000000       0.00000000       0.00000000       0.00000000       0.00000000 -259294.00000000
Zr       0.00000000       0.00000000       0.65030303       0.00000000       0.00000000  259294.00000000
2
Properties=species:S:1:pos:R:3:forces:R:3 energy=21871.577840211634 pbc="F F F"
Zr       0.00000000       0.00000000       0.00000000       0.00000000       0.00000000 -112605.39843750
Zr       0.00000000       0.00000000       0.70909091       0.00000000       0.00000000  112605.39843750
2
Properties=species:S:1:pos:R:3:forces:R:3 energy=14845.90694186917 pbc="F F F"
Zr       0.00000000       0.00000000       0.00000000       0.00000000       0.00000000 -120823.56250000
Zr       0.00000000       0.00000000       0.76787879       0.00000000       0.00000000  120823.56250000
2
Properties=species:S:1:pos:R:3:forces:R:3 energy=9206.398152958725 pbc="F F F"
Zr       0.00000000       0.00000000       0.00000000       0.00000000       0.00000000  -77336.96875000
Zr       0.00000000       0.00000000       0.82666667       0.00000000       0.00000000   77336.96875000
2
Properties=species:S:1:pos:R:3:forces:R:3 energy=5406.432821136552 pbc="F F F"
Zr       0.00000000       0.00000000       0.00000000       0.00000000       0.00000000  -50693.44921875
Zr       0.00000000       0.00000000       0.88545455       0.00000000       0.00000000   50693.44921875
2
Properties=species:S:1:pos:R:3:forces:R:3 energy=3112.5810147873663 pbc="F F F"
Zr       0.00000000       0.00000000       0.00000000       0.00000000       0.00000000  -33457.21093750
Zr       0.00000000       0.00000000       0.94424242       0.00000000       0.00000000   33457.21093750
2
Properties=species:S:1:pos:R:3:forces:R:3 energy=1594.8643403818246 pbc="F F F"
Zr       0.00000000       0.00000000       0.00000000       0.00000000       0.00000000  -20383.60546875
Zr       0.00000000       0.00000000       1.00303030       0.00000000       0.00000000   20383.60546875
2
Properties=species:S:1:pos:R:3:forces:R:3 energy=730.4407569359794 pbc="F F F"
Zr       0.00000000       0.00000000       0.00000000       0.00000000       0.00000000  -10084.43554688
Zr       0.00000000       0.00000000       1.06181818       0.00000000       0.00000000   10084.43554688
2
Properties=species:S:1:pos:R:3:forces:R:3 energy=318.710349943399 pbc="F F F"
Zr       0.00000000       0.00000000       0.00000000       0.00000000       0.00000000   -4501.79736328
Zr       0.00000000       0.00000000       1.12060606       0.00000000       0.00000000    4501.79736328
2
Properties=species:S:1:pos:R:3:forces:R:3 energy=141.97144402705845 pbc="F F F"
Zr       0.00000000       0.00000000       0.00000000       0.00000000       0.00000000   -1929.98559570
Zr       0.00000000       0.00000000       1.17939394       0.00000000       0.00000000    1929.98559570
2
Properties=species:S:1:pos:R:3:forces:R:3 energy=73.87273613705686 pbc="F F F"
Zr       0.00000000       0.00000000       0.00000000       0.00000000       0.00000000    -582.28479004
Zr       0.00000000       0.00000000       1.23818182       0.00000000       0.00000000     582.28479004
2
Properties=species:S:1:pos:R:3:forces:R:3 energy=45.267032434394885 pbc="F F F"
Zr       0.00000000       0.00000000       0.00000000       0.00000000       0.00000000    -382.54168701
Zr       0.00000000       0.00000000       1.29696970       0.00000000       0.00000000     382.54168701
2
Properties=species:S:1:pos:R:3:forces:R:3 energy=28.829837666877236 pbc="F F F"
Zr       0.00000000       0.00000000       0.00000000       0.00000000       0.00000000    -204.91091919
Zr       0.00000000       0.00000000       1.35575758       0.00000000       0.00000000     204.91091919
2
Properties=species:S:1:pos:R:3:forces:R:3 energy=18.878763630210152 pbc="F F F"
Zr       0.00000000       0.00000000       0.00000000       0.00000000       0.00000000    -135.62106323
Zr       0.00000000       0.00000000       1.41454545       0.00000000       0.00000000     135.62106323
2
Properties=species:S:1:pos:R:3:forces:R:3 energy=13.642305063593339 pbc="F F F"
Zr       0.00000000       0.00000000       0.00000000       0.00000000       0.00000000     -45.94910049
Zr       0.00000000       0.00000000       1.47333333       0.00000000       0.00000000      45.94910049
2
Properties=species:S:1:pos:R:3:forces:R:3 energy=11.549829133826792 pbc="F F F"
Zr       0.00000000       0.00000000       0.00000000       0.00000000       0.00000000     -37.52149582
Zr       0.00000000       0.00000000       1.53212121       0.00000000       0.00000000      37.52149582
2
Properties=species:S:1:pos:R:3:forces:R:3 energy=8.910913915853575 pbc="F F F"
Zr       0.00000000       0.00000000       0.00000000       0.00000000       0.00000000     -50.89093399
Zr       0.00000000       0.00000000       1.59090909       0.00000000       0.00000000      50.89093399
2
Properties=species:S:1:pos:R:3:forces:R:3 energy=5.830427515916745 pbc="F F F"
Zr       0.00000000       0.00000000       0.00000000       0.00000000       0.00000000     -50.47727203
Zr       0.00000000       0.00000000       1.64969697       0.00000000       0.00000000      50.47727203
2
Properties=species:S:1:pos:R:3:forces:R:3 energy=3.0153498376586807 pbc="F F F"
Zr       0.00000000       0.00000000       0.00000000       0.00000000       0.00000000     -45.88423157
Zr       0.00000000       0.00000000       1.70848485       0.00000000       0.00000000      45.88423157
2
Properties=species:S:1:pos:R:3:forces:R:3 energy=0.5187759350403122 pbc="F F F"
Zr       0.00000000       0.00000000       0.00000000       0.00000000       0.00000000     -38.58445740
Zr       0.00000000       0.00000000       1.76727273       0.00000000       0.00000000      38.58445740
2
Properties=species:S:1:pos:R:3:forces:R:3 energy=-1.5355909862680552 pbc="F F F"
Zr       0.00000000       0.00000000       0.00000000       0.00000000       0.00000000     -30.99645996
Zr       0.00000000       0.00000000       1.82606061       0.00000000       0.00000000      30.99645996
2
Properties=species:S:1:pos:R:3:forces:R:3 energy=-3.120609095460084 pbc="F F F"
Zr       0.00000000       0.00000000       0.00000000       0.00000000       0.00000000     -23.68881798
Zr       0.00000000       0.00000000       1.88484848       0.00000000       0.00000000      23.68881798
2
Properties=species:S:1:pos:R:3:forces:R:3 energy=-4.362660979540079 pbc="F F F"
Zr       0.00000000       0.00000000       0.00000000       0.00000000       0.00000000     -18.42180443
Zr       0.00000000       0.00000000       1.94363636       0.00000000       0.00000000      18.42180443
2
Properties=species:S:1:pos:R:3:forces:R:3 energy=-5.305949227661565 pbc="F F F"
Zr       0.00000000       0.00000000       0.00000000       0.00000000       0.00000000     -13.99660301
Zr       0.00000000       0.00000000       2.00242424       0.00000000       0.00000000      13.99660301
2
Properties=species:S:1:pos:R:3:forces:R:3 energy=-6.045526349864491 pbc="F F F"
Zr       0.00000000       0.00000000       0.00000000       0.00000000       0.00000000     -11.33509064
Zr       0.00000000       0.00000000       2.06121212       0.00000000       0.00000000      11.33509064
2
Properties=species:S:1:pos:R:3:forces:R:3 energy=-6.630769629163998 pbc="F F F"
Zr       0.00000000       0.00000000       0.00000000       0.00000000       0.00000000      -8.46681118
Zr       0.00000000       0.00000000       2.12000000       0.00000000       0.00000000       8.46681118
2
Properties=species:S:1:pos:R:3:forces:R:3 energy=-7.0526459321271755 pbc="F F F"
Zr       0.00000000       0.00000000       0.00000000       0.00000000       0.00000000      -6.11753035
Zr       0.00000000       0.00000000       2.17878788       0.00000000       0.00000000       6.11753035
2
Properties=species:S:1:pos:R:3:forces:R:3 energy=-7.3644756459506855 pbc="F F F"
Zr       0.00000000       0.00000000       0.00000000       0.00000000       0.00000000      -4.53095150
Zr       0.00000000       0.00000000       2.23757576       0.00000000       0.00000000       4.53095150
2
Properties=species:S:1:pos:R:3:forces:R:3 energy=-7.5955928799547054 pbc="F F F"
Zr       0.00000000       0.00000000       0.00000000       0.00000000       0.00000000      -3.40099573
Zr       0.00000000       0.00000000       2.29636364       0.00000000       0.00000000       3.40099573
2
Properties=species:S:1:pos:R:3:forces:R:3 energy=-7.762072875802832 pbc="F F F"
Zr       0.00000000       0.00000000       0.00000000       0.00000000       0.00000000      -2.21646523
Zr       0.00000000       0.00000000       2.35515152       0.00000000       0.00000000       2.21646523
2
Properties=species:S:1:pos:R:3:forces:R:3 energy=-7.857547848074714 pbc="F F F"
Zr       0.00000000       0.00000000       0.00000000       0.00000000       0.00000000      -1.08293545
Zr       0.00000000       0.00000000       2.41393939       0.00000000       0.00000000       1.08293545
2
Properties=species:S:1:pos:R:3:forces:R:3 energy=-7.896412026756938 pbc="F F F"
Zr       0.00000000       0.00000000       0.00000000       0.00000000       0.00000000      -0.30515119
Zr       0.00000000       0.00000000       2.47272727       0.00000000       0.00000000       0.30515119
2
Properties=species:S:1:pos:R:3:forces:R:3 energy=-7.898546002826092 pbc="F F F"
Zr       0.00000000       0.00000000       0.00000000       0.00000000       0.00000000       0.22578537
Zr       0.00000000       0.00000000       2.53151515       0.00000000       0.00000000      -0.22578537
2
Properties=species:S:1:pos:R:3:forces:R:3 energy=-7.869503253687851 pbc="F F F"
Zr       0.00000000       0.00000000       0.00000000       0.00000000       0.00000000       0.75192285
Zr       0.00000000       0.00000000       2.59030303       0.00000000       0.00000000      -0.75192285
2
Properties=species:S:1:pos:R:3:forces:R:3 energy=-7.813130254470456 pbc="F F F"
Zr       0.00000000       0.00000000       0.00000000       0.00000000       0.00000000       1.13715029
Zr       0.00000000       0.00000000       2.64909091       0.00000000       0.00000000      -1.13715029
2
Properties=species:S:1:pos:R:3:forces:R:3 energy=-7.738157963813741 pbc="F F F"
Zr       0.00000000       0.00000000       0.00000000       0.00000000       0.00000000       1.40243506
Zr       0.00000000       0.00000000       2.70787879       0.00000000       0.00000000      -1.40243506
2
Properties=species:S:1:pos:R:3:forces:R:3 energy=-7.64912452601096 pbc="F F F"
Zr       0.00000000       0.00000000       0.00000000       0.00000000       0.00000000       1.61823595
Zr       0.00000000       0.00000000       2.76666667       0.00000000       0.00000000      -1.61823595
2
Properties=species:S:1:pos:R:3:forces:R:3 energy=-7.5492439794142365 pbc="F F F"
Zr       0.00000000       0.00000000       0.00000000       0.00000000       0.00000000       1.76578259
Zr       0.00000000       0.00000000       2.82545455       0.00000000       0.00000000      -1.76578259
2
Properties=species:S:1:pos:R:3:forces:R:3 energy=-7.443197542510613 pbc="F F F"
Zr       0.00000000       0.00000000       0.00000000       0.00000000       0.00000000       1.82879579
Zr       0.00000000       0.00000000       2.88424242       0.00000000       0.00000000      -1.82879579
2
Properties=species:S:1:pos:R:3:forces:R:3 energy=-7.335471864841604 pbc="F F F"
Zr       0.00000000       0.00000000       0.00000000       0.00000000       0.00000000       1.82843888
Zr       0.00000000       0.00000000       2.94303030       0.00000000       0.00000000      -1.82843888
2
Properties=species:S:1:pos:R:3:forces:R:3 energy=-7.228792914459414 pbc="F F F"
Zr       0.00000000       0.00000000       0.00000000       0.00000000       0.00000000       1.79810631
Zr       0.00000000       0.00000000       3.00181818       0.00000000       0.00000000      -1.79810631
2
Properties=species:S:1:pos:R:3:forces:R:3 energy=-7.124340823113766 pbc="F F F"
Zr       0.00000000       0.00000000       0.00000000       0.00000000       0.00000000       1.75222278
Zr       0.00000000       0.00000000       3.06060606       0.00000000       0.00000000      -1.75222278
2
Properties=species:S:1:pos:R:3:forces:R:3 energy=-7.023347265898026 pbc="F F F"
Zr       0.00000000       0.00000000       0.00000000       0.00000000       0.00000000       1.67714643
Zr       0.00000000       0.00000000       3.11939394       0.00000000       0.00000000      -1.67714643
2
Properties=species:S:1:pos:R:3:forces:R:3 energy=-6.927946293788902 pbc="F F F"
Zr       0.00000000       0.00000000       0.00000000       0.00000000       0.00000000       1.56246281
Zr       0.00000000       0.00000000       3.17818182       0.00000000       0.00000000      -1.56246281
2
Properties=species:S:1:pos:R:3:forces:R:3 energy=-6.840115817582982 pbc="F F F"
Zr       0.00000000       0.00000000       0.00000000       0.00000000       0.00000000       1.42412257
Zr       0.00000000       0.00000000       3.23696970       0.00000000       0.00000000      -1.42412257
2
Properties=species:S:1:pos:R:3:forces:R:3 energy=-6.760337299171965 pbc="F F F"
Zr       0.00000000       0.00000000       0.00000000       0.00000000       0.00000000       1.29396915
Zr       0.00000000       0.00000000       3.29575758       0.00000000       0.00000000      -1.29396915
2
Properties=species:S:1:pos:R:3:forces:R:3 energy=-6.6873260991962855 pbc="F F F"
Zr       0.00000000       0.00000000       0.00000000       0.00000000       0.00000000       1.19599664
Zr       0.00000000       0.00000000       3.35454545       0.00000000       0.00000000      -1.19599664
2
Properties=species:S:1:pos:R:3:forces:R:3 energy=-6.619102626119492 pbc="F F F"
Zr       0.00000000       0.00000000       0.00000000       0.00000000       0.00000000       1.12878954
Zr       0.00000000       0.00000000       3.41333333       0.00000000       0.00000000      -1.12878954
2
Properties=species:S:1:pos:R:3:forces:R:3 energy=-6.55431983442244 pbc="F F F"
Zr       0.00000000       0.00000000       0.00000000       0.00000000       0.00000000       1.07654262
Zr       0.00000000       0.00000000       3.47212121       0.00000000       0.00000000      -1.07654262
2
Properties=species:S:1:pos:R:3:forces:R:3 energy=-6.4923907209879 pbc="F F F"
Zr       0.00000000       0.00000000       0.00000000       0.00000000       0.00000000       1.03166425
Zr       0.00000000       0.00000000       3.53090909       0.00000000       0.00000000      -1.03166425
2
Properties=species:S:1:pos:R:3:forces:R:3 energy=-6.432822430400829 pbc="F F F"
Zr       0.00000000       0.00000000       0.00000000       0.00000000       0.00000000       0.99706864
Zr       0.00000000       0.00000000       3.58969697       0.00000000       0.00000000      -0.99706864
2
Properties=species:S:1:pos:R:3:forces:R:3 energy=-6.374891651265214 pbc="F F F"
Zr       0.00000000       0.00000000       0.00000000       0.00000000       0.00000000       0.97605526
Zr       0.00000000       0.00000000       3.64848485       0.00000000       0.00000000      -0.97605526
2
Properties=species:S:1:pos:R:3:forces:R:3 energy=-6.317812564690474 pbc="F F F"
Zr       0.00000000       0.00000000       0.00000000       0.00000000       0.00000000       0.96763194
Zr       0.00000000       0.00000000       3.70727273       0.00000000       0.00000000      -0.96763194
2
Properties=species:S:1:pos:R:3:forces:R:3 energy=-6.260952144568872 pbc="F F F"
Zr       0.00000000       0.00000000       0.00000000       0.00000000       0.00000000       0.96780342
Zr       0.00000000       0.00000000       3.76606061       0.00000000       0.00000000      -0.96780342
2
Properties=species:S:1:pos:R:3:forces:R:3 energy=-6.203954139857088 pbc="F F F"
Zr       0.00000000       0.00000000       0.00000000       0.00000000       0.00000000       0.97158271
Zr       0.00000000       0.00000000       3.82484848       0.00000000       0.00000000      -0.97158271
2
Properties=species:S:1:pos:R:3:forces:R:3 energy=-6.14674570128211 pbc="F F F"
Zr       0.00000000       0.00000000       0.00000000       0.00000000       0.00000000       0.97409648
Zr       0.00000000       0.00000000       3.88363636       0.00000000       0.00000000      -0.97409648
2
Properties=species:S:1:pos:R:3:forces:R:3 energy=-6.089525205133639 pbc="F F F"
Zr       0.00000000       0.00000000       0.00000000       0.00000000       0.00000000       0.97133189
Zr       0.00000000       0.00000000       3.94242424       0.00000000       0.00000000      -0.97133189
2
Properties=species:S:1:pos:R:3:forces:R:3 energy=-6.032691388646241 pbc="F F F"
Zr       0.00000000       0.00000000       0.00000000       0.00000000       0.00000000       0.96079546
Zr       0.00000000       0.00000000       4.00121212       0.00000000       0.00000000      -0.96079546
2
Properties=species:S:1:pos:R:3:forces:R:3 energy=-5.976724048363406 pbc="F F F"
Zr       0.00000000       0.00000000       0.00000000       0.00000000       0.00000000       0.94180614
Zr       0.00000000       0.00000000       4.06000000       0.00000000       0.00000000      -0.94180614
2
Properties=species:S:1:pos:R:3:forces:R:3 energy=-5.92210870287452 pbc="F F F"
Zr       0.00000000       0.00000000       0.00000000       0.00000000       0.00000000       0.91520172
Zr       0.00000000       0.00000000       4.11878788       0.00000000       0.00000000      -0.91520172
2
Properties=species:S:1:pos:R:3:forces:R:3 energy=-5.86923963481681 pbc="F F F"
Zr       0.00000000       0.00000000       0.00000000       0.00000000       0.00000000       0.88250744
Zr       0.00000000       0.00000000       4.17757576       0.00000000       0.00000000      -0.88250744
2
Properties=species:S:1:pos:R:3:forces:R:3 energy=-5.818437373795254 pbc="F F F"
Zr       0.00000000       0.00000000       0.00000000       0.00000000       0.00000000       0.84514171
Zr       0.00000000       0.00000000       4.23636364       0.00000000       0.00000000      -0.84514171
2
Properties=species:S:1:pos:R:3:forces:R:3 energy=-5.769944799321936 pbc="F F F"
Zr       0.00000000       0.00000000       0.00000000       0.00000000       0.00000000       0.80400014
Zr       0.00000000       0.00000000       4.29515152       0.00000000       0.00000000      -0.80400014
2
Properties=species:S:1:pos:R:3:forces:R:3 energy=-5.7239712695960225 pbc="F F F"
Zr       0.00000000       0.00000000       0.00000000       0.00000000       0.00000000       0.75954616
Zr       0.00000000       0.00000000       4.35393939       0.00000000       0.00000000      -0.75954616
2
Properties=species:S:1:pos:R:3:forces:R:3 energy=-5.680700174870556 pbc="F F F"
Zr       0.00000000       0.00000000       0.00000000       0.00000000       0.00000000       0.71210504
Zr       0.00000000       0.00000000       4.41272727       0.00000000       0.00000000      -0.71210504
2
Properties=species:S:1:pos:R:3:forces:R:3 energy=-5.640292707800214 pbc="F F F"
Zr       0.00000000       0.00000000       0.00000000       0.00000000       0.00000000       0.66217589
Zr       0.00000000       0.00000000       4.47151515       0.00000000       0.00000000      -0.66217589
2
Properties=species:S:1:pos:R:3:forces:R:3 energy=-5.6028766664396406 pbc="F F F"
Zr       0.00000000       0.00000000       0.00000000       0.00000000       0.00000000       0.61054730
Zr       0.00000000       0.00000000       4.53030303       0.00000000       0.00000000      -0.61054730
2
Properties=species:S:1:pos:R:3:forces:R:3 energy=-5.568521417956734 pbc="F F F"
Zr       0.00000000       0.00000000       0.00000000       0.00000000       0.00000000       0.55826777
Zr       0.00000000       0.00000000       4.58909091       0.00000000       0.00000000      -0.55826777
2
Properties=species:S:1:pos:R:3:forces:R:3 energy=-5.537228463259793 pbc="F F F"
Zr       0.00000000       0.00000000       0.00000000       0.00000000       0.00000000       0.50653684
Zr       0.00000000       0.00000000       4.64787879       0.00000000       0.00000000      -0.50653684
2
Properties=species:S:1:pos:R:3:forces:R:3 energy=-5.508927527265586 pbc="F F F"
Zr       0.00000000       0.00000000       0.00000000       0.00000000       0.00000000       0.45658681
Zr       0.00000000       0.00000000       4.70666667       0.00000000       0.00000000      -0.45658681
2
Properties=species:S:1:pos:R:3:forces:R:3 energy=-5.483487977648571 pbc="F F F"
Zr       0.00000000       0.00000000       0.00000000       0.00000000       0.00000000       0.40958309
Zr       0.00000000       0.00000000       4.76545455       0.00000000       0.00000000      -0.40958309
2
Properties=species:S:1:pos:R:3:forces:R:3 energy=-5.460693896260141 pbc="F F F"
Zr       0.00000000       0.00000000       0.00000000       0.00000000       0.00000000       0.36654380
Zr       0.00000000       0.00000000       4.82424242       0.00000000       0.00000000      -0.36654380
2
Properties=species:S:1:pos:R:3:forces:R:3 energy=-5.440295552199126 pbc="F F F"
Zr       0.00000000       0.00000000       0.00000000       0.00000000       0.00000000       0.32825708
Zr       0.00000000       0.00000000       4.88303030       0.00000000       0.00000000      -0.32825708
2
Properties=species:S:1:pos:R:3:forces:R:3 energy=-5.421995847630756 pbc="F F F"
Zr       0.00000000       0.00000000       0.00000000       0.00000000       0.00000000       0.29518789
Zr       0.00000000       0.00000000       4.94181818       0.00000000       0.00000000      -0.29518789
2
Properties=species:S:1:pos:R:3:forces:R:3 energy=-5.405482673021321 pbc="F F F"
Zr       0.00000000       0.00000000       0.00000000       0.00000000       0.00000000       0.26741129
Zr       0.00000000       0.00000000       5.00060606       0.00000000       0.00000000      -0.26741129
2
Properties=species:S:1:pos:R:3:forces:R:3 energy=-5.390459380366794 pbc="F F F"
Zr       0.00000000       0.00000000       0.00000000       0.00000000       0.00000000       0.24453430
Zr       0.00000000       0.00000000       5.05939394       0.00000000       0.00000000      -0.24453430
2
Properties=species:S:1:pos:R:3:forces:R:3 energy=-5.3766502011278 pbc="F F F"
Zr       0.00000000       0.00000000       0.00000000       0.00000000       0.00000000       0.22572263
Zr       0.00000000       0.00000000       5.11818182       0.00000000       0.00000000      -0.22572263
2
Properties=species:S:1:pos:R:3:forces:R:3 energy=-5.363861287721511 pbc="F F F"
Zr       0.00000000       0.00000000       0.00000000       0.00000000       0.00000000       0.20979032
Zr       0.00000000       0.00000000       5.17696970       0.00000000       0.00000000      -0.20979032
2
Properties=species:S:1:pos:R:3:forces:R:3 energy=-5.35195766694694 pbc="F F F"
Zr       0.00000000       0.00000000       0.00000000       0.00000000       0.00000000       0.19538350
Zr       0.00000000       0.00000000       5.23575758       0.00000000       0.00000000      -0.19538350
2
Properties=species:S:1:pos:R:3:forces:R:3 energy=-5.34088986683808 pbc="F F F"
Zr       0.00000000       0.00000000       0.00000000       0.00000000       0.00000000       0.18120918
Zr       0.00000000       0.00000000       5.29454545       0.00000000       0.00000000      -0.18120918
2
Properties=species:S:1:pos:R:3:forces:R:3 energy=-5.330670914438701 pbc="F F F"
Zr       0.00000000       0.00000000       0.00000000       0.00000000       0.00000000       0.16624574
Zr       0.00000000       0.00000000       5.35333333       0.00000000       0.00000000      -0.16624574
2
Properties=species:S:1:pos:R:3:forces:R:3 energy=-5.321366666010663 pbc="F F F"
Zr       0.00000000       0.00000000       0.00000000       0.00000000       0.00000000       0.14992009
Zr       0.00000000       0.00000000       5.41212121       0.00000000       0.00000000      -0.14992009
2
Properties=species:S:1:pos:R:3:forces:R:3 energy=-5.3130710431799075 pbc="F F F"
Zr       0.00000000       0.00000000       0.00000000       0.00000000       0.00000000       0.13217501
Zr       0.00000000       0.00000000       5.47090909       0.00000000       0.00000000      -0.13217501
2
Properties=species:S:1:pos:R:3:forces:R:3 energy=-5.305844877402968 pbc="F F F"
Zr       0.00000000       0.00000000       0.00000000       0.00000000       0.00000000       0.11345275
Zr       0.00000000       0.00000000       5.52969697       0.00000000       0.00000000      -0.11345275
2
Properties=species:S:1:pos:R:3:forces:R:3 energy=-5.299731143413454 pbc="F F F"
Zr       0.00000000       0.00000000       0.00000000       0.00000000       0.00000000       0.09460019
Zr       0.00000000       0.00000000       5.58848485       0.00000000       0.00000000      -0.09460019
2
Properties=species:S:1:pos:R:3:forces:R:3 energy=-5.294703562179276 pbc="F F F"
Zr       0.00000000       0.00000000       0.00000000       0.00000000       0.00000000       0.07669328
Zr       0.00000000       0.00000000       5.64727273       0.00000000       0.00000000      -0.07669328
2
Properties=species:S:1:pos:R:3:forces:R:3 energy=-5.290675947576475 pbc="F F F"
Zr       0.00000000       0.00000000       0.00000000       0.00000000       0.00000000       0.06084019
Zr       0.00000000       0.00000000       5.70606061       0.00000000       0.00000000      -0.06084019
2
Properties=species:S:1:pos:R:3:forces:R:3 energy=-5.287492805862419 pbc="F F F"
Zr       0.00000000       0.00000000       0.00000000       0.00000000       0.00000000       0.04794804
Zr       0.00000000       0.00000000       5.76484848       0.00000000       0.00000000      -0.04794804
2
Properties=species:S:1:pos:R:3:forces:R:3 energy=-5.284967549172717 pbc="F F F"
Zr       0.00000000       0.00000000       0.00000000       0.00000000       0.00000000       0.03856719
Zr       0.00000000       0.00000000       5.82363636       0.00000000       0.00000000      -0.03856719
2
Properties=species:S:1:pos:R:3:forces:R:3 energy=-5.282890023545447 pbc="F F F"
Zr       0.00000000       0.00000000       0.00000000       0.00000000       0.00000000       0.03266279
Zr       0.00000000       0.00000000       5.88242424       0.00000000       0.00000000      -0.03266279
2
Properties=species:S:1:pos:R:3:forces:R:3 energy=-5.28107051732388 pbc="F F F"
Zr       0.00000000       0.00000000       0.00000000       0.00000000       0.00000000       0.02959242
Zr       0.00000000       0.00000000       5.94121212       0.00000000       0.00000000      -0.02959242
2
Properties=species:S:1:pos:R:3:forces:R:3 energy=-5.279377946143008 pbc="F F F"
Zr       0.00000000       0.00000000       0.00000000       0.00000000       0.00000000       0.02814879
Zr       0.00000000       0.00000000       6.00000000       0.00000000       0.00000000      -0.02814879
