2
Properties=species:S:1:pos:R:3:forces:R:3 energy=-29340968.060831815 pbc="F F F"
Zr       0.00000000       0.00000000       0.00000000       0.00000000       0.00000000 206762848.00000000
Zr       0.00000000       0.00000000       0.18000000       0.00000000       0.00000000 -206762848.00000000
2
Properties=species:S:1:pos:R:3:forces:R:3 energy=-17764324.060831815 pbc="F F F"
Zr       0.00000000       0.00000000       0.00000000       0.00000000       0.00000000 193853376.00000000
Zr       0.00000000       0.00000000       0.23878788       0.00000000       0.00000000 -193853376.00000000
2
Properties=species:S:1:pos:R:3:forces:R:3 energy=-8380046.060831815 pbc="F F F"
Zr       0.00000000       0.00000000       0.00000000       0.00000000       0.00000000 123016896.00000000
Zr       0.00000000       0.00000000       0.29757576       0.00000000       0.00000000 -123016896.00000000
2
Properties=species:S:1:pos:R:3:forces:R:3 energy=-2081494.6858318155 pbc="F F F"
Zr       0.00000000       0.00000000       0.00000000       0.00000000       0.00000000 74554240.00000000
Zr       0.00000000       0.00000000       0.35636364       0.00000000       0.00000000 -74554240.00000000
2
Properties=species:S:1:pos:R:3:forces:R:3 energy=128215.61885569092 pbc="F F F"
Zr       0.00000000       0.00000000       0.00000000       0.00000000       0.00000000 14150552.00000000
Zr       0.00000000       0.00000000       0.41515152       0.00000000       0.00000000 -14150552.00000000
2
Properties=species:S:1:pos:R:3:forces:R:3 energy=349065.0016681973 pbc="F F F"
Zr       0.00000000       0.00000000       0.00000000       0.00000000       0.00000000 -1901018.12500000
Zr       0.00000000       0.00000000       0.47393939       0.00000000       0.00000000 1901018.12500000
2
Properties=species:S:1:pos:R:3:forces:R:3 energy=197807.3297932099 pbc="F F F"
Zr       0.00000000       0.00000000       0.00000000       0.00000000       0.00000000 -2761075.00000000
Zr       0.00000000       0.00000000       0.53272727       0.00000000       0.00000000 2761075.00000000
2
Properties=species:S:1:pos:R:3:forces:R:3 energy=69014.33760573526 pbc="F F F"
Zr       0.00000000       0.00000000       0.00000000       0.00000000       0.00000000 -1168154.00000000
Zr       0.00000000       0.00000000       0.59151515       0.00000000       0.00000000 1168154.00000000
2
Properties=species:S:1:pos:R:3:forces:R:3 energy=30021.034871404616 pbc="F F F"
Zr       0.00000000       0.00000000       0.00000000       0.00000000       0.00000000 -259294.87500000
Zr       0.00000000       0.00000000       0.65030303       0.00000000       0.00000000  259294.87500000
2
Properties=species:S:1:pos:R:3:forces:R:3 energy=21871.67354334297 pbc="F F F"
Zr       0.00000000       0.00000000       0.00000000       0.00000000       0.00000000 -112606.21093750
Zr       0.00000000       0.00000000       0.70909091       0.00000000       0.00000000  112606.21093750
2
Properties=species:S:1:pos:R:3:forces:R:3 energy=14845.886434063006 pbc="F F F"
Zr       0.00000000       0.00000000       0.00000000       0.00000000       0.00000000 -120823.39062500
Zr       0.00000000       0.00000000       0.76787879       0.00000000       0.00000000  120823.39062500
2
Properties=species:S:1:pos:R:3:forces:R:3 energy=9206.397176402561 pbc="F F F"
Zr       0.00000000       0.00000000       0.00000000       0.00000000       0.00000000  -77336.96875000
Zr       0.00000000       0.00000000       0.82666667       0.00000000       0.00000000   77336.96875000
2
Properties=species:S:1:pos:R:3:forces:R:3 energy=5406.434774261552 pbc="F F F"
Zr       0.00000000       0.00000000       0.00000000       0.00000000       0.00000000  -50693.45312500
Zr       0.00000000       0.00000000       0.88545455       0.00000000       0.00000000   50693.45312500
2
Properties=species:S:1:pos:R:3:forces:R:3 energy=3112.5783292404913 pbc="F F F"
Zr       0.00000000       0.00000000       0.00000000       0.00000000       0.00000000  -33457.23828125
Zr       0.00000000       0.00000000       0.94424242       0.00000000       0.00000000   33457.23828125
2
Properties=species:S:1:pos:R:3:forces:R:3 energy=1594.8645845287851 pbc="F F F"
Zr       0.00000000       0.00000000       0.00000000       0.00000000       0.00000000  -20383.61718750
Zr       0.00000000       0.00000000       1.00303030       0.00000000       0.00000000   20383.61718750
2
Properties=species:S:1:pos:R:3:forces:R:3 energy=730.4400245204399 pbc="F F F"
Zr       0.00000000       0.00000000       0.00000000       0.00000000       0.00000000  -10084.43164062
Zr       0.00000000       0.00000000       1.06181818       0.00000000       0.00000000   10084.43164062
2
Properties=species:S:1:pos:R:3:forces:R:3 energy=318.7106246079378 pbc="F F F"
Zr       0.00000000       0.00000000       0.00000000       0.00000000       0.00000000   -4501.80371094
Zr       0.00000000       0.00000000       1.12060606       0.00000000       0.00000000    4501.80371094
2
Properties=species:S:1:pos:R:3:forces:R:3 energy=141.97155084491754 pbc="F F F"
Zr       0.00000000       0.00000000       0.00000000       0.00000000       0.00000000   -1929.98510742
Zr       0.00000000       0.00000000       1.17939394       0.00000000       0.00000000    1929.98510742
2
Properties=species:S:1:pos:R:3:forces:R:3 energy=73.8727590315761 pbc="F F F"
Zr       0.00000000       0.00000000       0.00000000       0.00000000       0.00000000    -582.28503418
Zr       0.00000000       0.00000000       1.23818182       0.00000000       0.00000000     582.28503418
2
Properties=species:S:1:pos:R:3:forces:R:3 energy=45.26707058770319 pbc="F F F"
Zr       0.00000000       0.00000000       0.00000000       0.00000000       0.00000000    -382.54196167
Zr       0.00000000       0.00000000       1.29696970       0.00000000       0.00000000     382.54196167
2
Properties=species:S:1:pos:R:3:forces:R:3 energy=28.82981478502929 pbc="F F F"
Zr       0.00000000       0.00000000       0.00000000       0.00000000       0.00000000    -204.91084290
Zr       0.00000000       0.00000000       1.35575758       0.00000000       0.00000000     204.91084290
2
Properties=species:S:1:pos:R:3:forces:R:3 energy=18.878775080637595 pbc="F F F"
Zr       0.00000000       0.00000000       0.00000000       0.00000000       0.00000000    -135.62106323
Zr       0.00000000       0.00000000       1.41454545       0.00000000       0.00000000     135.62106323
2
Properties=species:S:1:pos:R:3:forces:R:3 energy=13.642308878290605 pbc="F F F"
Zr       0.00000000       0.00000000       0.00000000       0.00000000       0.00000000     -45.94916153
Zr       0.00000000       0.00000000       1.47333333       0.00000000       0.00000000      45.94916153
2
Properties=species:S:1:pos:R:3:forces:R:3 energy=11.549817689734995 pbc="F F F"
Zr       0.00000000       0.00000000       0.00000000       0.00000000       0.00000000     -37.52148819
Zr       0.00000000       0.00000000       1.53212121       0.00000000       0.00000000      37.52148819
2
Properties=species:S:1:pos:R:3:forces:R:3 energy=8.910913928524863 pbc="F F F"
Zr       0.00000000       0.00000000       0.00000000       0.00000000       0.00000000     -50.89092636
Zr       0.00000000       0.00000000       1.59090909       0.00000000       0.00000000      50.89092636
2
Properties=species:S:1:pos:R:3:forces:R:3 energy=5.830429429601022 pbc="F F F"
Zr       0.00000000       0.00000000       0.00000000       0.00000000       0.00000000     -50.47727585
Zr       0.00000000       0.00000000       1.64969697       0.00000000       0.00000000      50.47727585
2
Properties=species:S:1:pos:R:3:forces:R:3 energy=3.0153517513429575 pbc="F F F"
Zr       0.00000000       0.00000000       0.00000000       0.00000000       0.00000000     -45.88424301
Zr       0.00000000       0.00000000       1.70848485       0.00000000       0.00000000      45.88424301
2
Properties=species:S:1:pos:R:3:forces:R:3 energy=0.5187721266786908 pbc="F F F"
Zr       0.00000000       0.00000000       0.00000000       0.00000000       0.00000000     -38.58445740
Zr       0.00000000       0.00000000       1.76727273       0.00000000       0.00000000      38.58445740
2
Properties=species:S:1:pos:R:3:forces:R:3 energy=-1.5355890852550669 pbc="F F F"
Zr       0.00000000       0.00000000       0.00000000       0.00000000       0.00000000     -30.99644852
Zr       0.00000000       0.00000000       1.82606061       0.00000000       0.00000000      30.99644852
2
Properties=species:S:1:pos:R:3:forces:R:3 energy=-3.1206110028087166 pbc="F F F"
Zr       0.00000000       0.00000000       0.00000000       0.00000000       0.00000000     -23.68880844
Zr       0.00000000       0.00000000       1.88484848       0.00000000       0.00000000      23.68880844
2
Properties=species:S:1:pos:R:3:forces:R:3 energy=-4.362660979540079 pbc="F F F"
Zr       0.00000000       0.00000000       0.00000000       0.00000000       0.00000000     -18.42180443
Zr       0.00000000       0.00000000       1.94363636       0.00000000       0.00000000      18.42180443
2
Properties=species:S:1:pos:R:3:forces:R:3 energy=-5.305949227661565 pbc="F F F"
Zr       0.00000000       0.00000000       0.00000000       0.00000000       0.00000000     -13.99660492
Zr       0.00000000       0.00000000       2.00242424       0.00000000       0.00000000      13.99660492
2
Properties=species:S:1:pos:R:3:forces:R:3 energy=-6.045526356200135 pbc="F F F"
Zr       0.00000000       0.00000000       0.00000000       0.00000000       0.00000000     -11.33509064
Zr       0.00000000       0.00000000       2.06121212       0.00000000       0.00000000      11.33509064
2
Properties=species:S:1:pos:R:3:forces:R:3 energy=-6.630769629163998 pbc="F F F"
Zr       0.00000000       0.00000000       0.00000000       0.00000000       0.00000000      -8.46680832
Zr       0.00000000       0.00000000       2.12000000       0.00000000       0.00000000       8.46680832
2
Properties=species:S:1:pos:R:3:forces:R:3 energy=-7.0526459321271755 pbc="F F F"
Zr       0.00000000       0.00000000       0.00000000       0.00000000       0.00000000      -6.11752987
Zr       0.00000000       0.00000000       2.17878788       0.00000000       0.00000000       6.11752987
2
Properties=species:S:1:pos:R:3:forces:R:3 energy=-7.364477553299318 pbc="F F F"
Zr       0.00000000       0.00000000       0.00000000       0.00000000       0.00000000      -4.53095245
Zr       0.00000000       0.00000000       2.23757576       0.00000000       0.00000000       4.53095245
2
Properties=species:S:1:pos:R:3:forces:R:3 energy=-7.595596688316326 pbc="F F F"
Zr       0.00000000       0.00000000       0.00000000       0.00000000       0.00000000      -3.40099430
Zr       0.00000000       0.00000000       2.29636364       0.00000000       0.00000000       3.40099430
2
Properties=species:S:1:pos:R:3:forces:R:3 energy=-7.762074783151465 pbc="F F F"
Zr       0.00000000       0.00000000       0.00000000       0.00000000       0.00000000      -2.21646547
Zr       0.00000000       0.00000000       2.35515152       0.00000000       0.00000000       2.21646547
2
Properties=species:S:1:pos:R:3:forces:R:3 energy=-7.857547848074714 pbc="F F F"
Zr       0.00000000       0.00000000       0.00000000       0.00000000       0.00000000      -1.08293521
Zr       0.00000000       0.00000000       2.41393939       0.00000000       0.00000000       1.08293521
2
Properties=species:S:1:pos:R:3:forces:R:3 energy=-7.896410119408305 pbc="F F F"
Zr       0.00000000       0.00000000       0.00000000       0.00000000       0.00000000      -0.30515143
Zr       0.00000000       0.00000000       2.47272727       0.00000000       0.00000000       0.30515143
2
Properties=species:S:1:pos:R:3:forces:R:3 energy=-7.898544095477459 pbc="F F F"
Zr       0.00000000       0.00000000       0.00000000       0.00000000       0.00000000       0.22578661
Zr       0.00000000       0.00000000       2.53151515       0.00000000       0.00000000      -0.22578661
2
Properties=species:S:1:pos:R:3:forces:R:3 energy=-7.869503247352207 pbc="F F F"
Zr       0.00000000       0.00000000       0.00000000       0.00000000       0.00000000       0.75192255
Zr       0.00000000       0.00000000       2.59030303       0.00000000       0.00000000      -0.75192255
2
Properties=species:S:1:pos:R:3:forces:R:3 energy=-7.813130254470456 pbc="F F F"
Zr       0.00000000       0.00000000       0.00000000       0.00000000       0.00000000       1.13715243
Zr       0.00000000       0.00000000       2.64909091       0.00000000       0.00000000      -1.13715243
2
Properties=species:S:1:pos:R:3:forces:R:3 energy=-7.738157963813741 pbc="F F F"
Zr       0.00000000       0.00000000       0.00000000       0.00000000       0.00000000       1.40243459
Zr       0.00000000       0.00000000       2.70787879       0.00000000       0.00000000      -1.40243459
2
Properties=species:S:1:pos:R:3:forces:R:3 energy=-7.64912452601096 pbc="F F F"
Zr       0.00000000       0.00000000       0.00000000       0.00000000       0.00000000       1.61823595
Zr       0.00000000       0.00000000       2.76666667       0.00000000       0.00000000      -1.61823595
2
Properties=species:S:1:pos:R:3:forces:R:3 energy=-7.5492439794142365 pbc="F F F"
Zr       0.00000000       0.00000000       0.00000000       0.00000000       0.00000000       1.76578283
Zr       0.00000000       0.00000000       2.82545455       0.00000000       0.00000000      -1.76578283
2
Properties=species:S:1:pos:R:3:forces:R:3 energy=-7.443199437187958 pbc="F F F"
Zr       0.00000000       0.00000000       0.00000000       0.00000000       0.00000000       1.82879603
Zr       0.00000000       0.00000000       2.88424242       0.00000000       0.00000000      -1.82879603
2
Properties=species:S:1:pos:R:3:forces:R:3 energy=-7.335469963828616 pbc="F F F"
Zr       0.00000000       0.00000000       0.00000000       0.00000000       0.00000000       1.82843912
Zr       0.00000000       0.00000000       2.94303030       0.00000000       0.00000000      -1.82843912
2
Properties=species:S:1:pos:R:3:forces:R:3 energy=-7.22879295247328 pbc="F F F"
Zr       0.00000000       0.00000000       0.00000000       0.00000000       0.00000000       1.79810655
Zr       0.00000000       0.00000000       3.00181818       0.00000000       0.00000000      -1.79810655
2
Properties=species:S:1:pos:R:3:forces:R:3 energy=-7.1243427304623985 pbc="F F F"
Zr       0.00000000       0.00000000       0.00000000       0.00000000       0.00000000       1.75222242
Zr       0.00000000       0.00000000       3.06060606       0.00000000       0.00000000      -1.75222242
2
Properties=species:S:1:pos:R:3:forces:R:3 energy=-7.023347265898026 pbc="F F F"
Zr       0.00000000       0.00000000       0.00000000       0.00000000       0.00000000       1.67714667
Zr       0.00000000       0.00000000       3.11939394       0.00000000       0.00000000      -1.67714667
2
Properties=species:S:1:pos:R:3:forces:R:3 energy=-6.927944405447202 pbc="F F F"
Zr       0.00000000       0.00000000       0.00000000       0.00000000       0.00000000       1.56246281
Zr       0.00000000       0.00000000       3.17818182       0.00000000       0.00000000      -1.56246281
2
Properties=species:S:1:pos:R:3:forces:R:3 energy=-6.840115817582982 pbc="F F F"
Zr       0.00000000       0.00000000       0.00000000       0.00000000       0.00000000       1.42412281
Zr       0.00000000       0.00000000       3.23696970       0.00000000       0.00000000      -1.42412281
2
Properties=species:S:1:pos:R:3:forces:R:3 energy=-6.760337299171965 pbc="F F F"
Zr       0.00000000       0.00000000       0.00000000       0.00000000       0.00000000       1.29396868
Zr       0.00000000       0.00000000       3.29575758       0.00000000       0.00000000      -1.29396868
2
Properties=species:S:1:pos:R:3:forces:R:3 energy=-6.687326149881439 pbc="F F F"
Zr       0.00000000       0.00000000       0.00000000       0.00000000       0.00000000       1.19599748
Zr       0.00000000       0.00000000       3.35454545       0.00000000       0.00000000      -1.19599748
2
Properties=species:S:1:pos:R:3:forces:R:3 energy=-6.619104533468125 pbc="F F F"
Zr       0.00000000       0.00000000       0.00000000       0.00000000       0.00000000       1.12878978
Zr       0.00000000       0.00000000       3.41333333       0.00000000       0.00000000      -1.12878978
2
Properties=species:S:1:pos:R:3:forces:R:3 energy=-6.554321741771073 pbc="F F F"
Zr       0.00000000       0.00000000       0.00000000       0.00000000       0.00000000       1.07654297
Zr       0.00000000       0.00000000       3.47212121       0.00000000       0.00000000      -1.07654297
2
Properties=species:S:1:pos:R:3:forces:R:3 energy=-6.4923907209879 pbc="F F F"
Zr       0.00000000       0.00000000       0.00000000       0.00000000       0.00000000       1.03166449
Zr       0.00000000       0.00000000       3.53090909       0.00000000       0.00000000      -1.03166449
2
Properties=species:S:1:pos:R:3:forces:R:3 energy=-6.432822430400829 pbc="F F F"
Zr       0.00000000       0.00000000       0.00000000       0.00000000       0.00000000       0.99706858
Zr       0.00000000       0.00000000       3.58969697       0.00000000       0.00000000      -0.99706858
2
Properties=species:S:1:pos:R:3:forces:R:3 energy=-6.374891638593925 pbc="F F F"
Zr       0.00000000       0.00000000       0.00000000       0.00000000       0.00000000       0.97605503
Zr       0.00000000       0.00000000       3.64848485       0.00000000       0.00000000      -0.97605503
2
Properties=species:S:1:pos:R:3:forces:R:3 energy=-6.317812564690474 pbc="F F F"
Zr       0.00000000       0.00000000       0.00000000       0.00000000       0.00000000       0.96763134
Zr       0.00000000       0.00000000       3.70727273       0.00000000       0.00000000      -0.96763134
2
Properties=species:S:1:pos:R:3:forces:R:3 energy=-6.260952144568872 pbc="F F F"
Zr       0.00000000       0.00000000       0.00000000       0.00000000       0.00000000       0.96780199
Zr       0.00000000       0.00000000       3.76606061       0.00000000       0.00000000      -0.96780199
2
Properties=species:S:1:pos:R:3:forces:R:3 energy=-6.203952219837167 pbc="F F F"
Zr       0.00000000       0.00000000       0.00000000       0.00000000       0.00000000       0.97158271
Zr       0.00000000       0.00000000       3.82484848       0.00000000       0.00000000      -0.97158271
2
Properties=species:S:1:pos:R:3:forces:R:3 energy=-6.14674570128211 pbc="F F F"
Zr       0.00000000       0.00000000       0.00000000       0.00000000       0.00000000       0.97409505
Zr       0.00000000       0.00000000       3.88363636       0.00000000       0.00000000      -0.97409505
2
Properties=species:S:1:pos:R:3:forces:R:3 energy=-6.089525205133639 pbc="F F F"
Zr       0.00000000       0.00000000       0.00000000       0.00000000       0.00000000       0.97133207
Zr       0.00000000       0.00000000       3.94242424       0.00000000       0.00000000      -0.97133207
2
Properties=species:S:1:pos:R:3:forces:R:3 energy=-6.032693283323585 pbc="F F F"
Zr       0.00000000       0.00000000       0.00000000       0.00000000       0.00000000       0.96079487
Zr       0.00000000       0.00000000       4.00121212       0.00000000       0.00000000      -0.96079487
2
Properties=species:S:1:pos:R:3:forces:R:3 energy=-5.9767259557120385 pbc="F F F"
Zr       0.00000000       0.00000000       0.00000000       0.00000000       0.00000000       0.94180638
Zr       0.00000000       0.00000000       4.06000000       0.00000000       0.00000000      -0.94180638
2
Properties=species:S:1:pos:R:3:forces:R:3 energy=-5.92210870287452 pbc="F F F"
Zr       0.00000000       0.00000000       0.00000000       0.00000000       0.00000000       0.91520137
Zr       0.00000000       0.00000000       4.11878788       0.00000000       0.00000000      -0.91520137
2
Properties=species:S:1:pos:R:3:forces:R:3 energy=-5.869239622145521 pbc="F F F"
Zr       0.00000000       0.00000000       0.00000000       0.00000000       0.00000000       0.88250881
Zr       0.00000000       0.00000000       4.17757576       0.00000000       0.00000000      -0.88250881
2
Properties=species:S:1:pos:R:3:forces:R:3 energy=-5.818437361123966 pbc="F F F"
Zr       0.00000000       0.00000000       0.00000000       0.00000000       0.00000000       0.84514093
Zr       0.00000000       0.00000000       4.23636364       0.00000000       0.00000000      -0.84514093
2
Properties=species:S:1:pos:R:3:forces:R:3 energy=-5.769944799321936 pbc="F F F"
Zr       0.00000000       0.00000000       0.00000000       0.00000000       0.00000000       0.80400109
Zr       0.00000000       0.00000000       4.29515152       0.00000000       0.00000000      -0.80400109
2
Properties=species:S:1:pos:R:3:forces:R:3 energy=-5.7239712695960225 pbc="F F F"
Zr       0.00000000       0.00000000       0.00000000       0.00000000       0.00000000       0.75954604
Zr       0.00000000       0.00000000       4.35393939       0.00000000       0.00000000      -0.75954604
2
Properties=species:S:1:pos:R:3:forces:R:3 energy=-5.680700162199267 pbc="F F F"
Zr       0.00000000       0.00000000       0.00000000       0.00000000       0.00000000       0.71210492
Zr       0.00000000       0.00000000       4.41272727       0.00000000       0.00000000      -0.71210492
2
Properties=species:S:1:pos:R:3:forces:R:3 energy=-5.6402946151488464 pbc="F F F"
Zr       0.00000000       0.00000000       0.00000000       0.00000000       0.00000000       0.66217637
Zr       0.00000000       0.00000000       4.47151515       0.00000000       0.00000000      -0.66217637
2
Properties=species:S:1:pos:R:3:forces:R:3 energy=-5.6028766664396406 pbc="F F F"
Zr       0.00000000       0.00000000       0.00000000       0.00000000       0.00000000       0.61054939
Zr       0.00000000       0.00000000       4.53030303       0.00000000       0.00000000      -0.61054939
2
Properties=species:S:1:pos:R:3:forces:R:3 energy=-5.568523312634078 pbc="F F F"
Zr       0.00000000       0.00000000       0.00000000       0.00000000       0.00000000       0.55826747
Zr       0.00000000       0.00000000       4.58909091       0.00000000       0.00000000      -0.55826747
2
Properties=species:S:1:pos:R:3:forces:R:3 energy=-5.53722655591116 pbc="F F F"
Zr       0.00000000       0.00000000       0.00000000       0.00000000       0.00000000       0.50653577
Zr       0.00000000       0.00000000       4.64787879       0.00000000       0.00000000      -0.50653577
2
Properties=species:S:1:pos:R:3:forces:R:3 energy=-5.508927527265586 pbc="F F F"
Zr       0.00000000       0.00000000       0.00000000       0.00000000       0.00000000       0.45658720
Zr       0.00000000       0.00000000       4.70666667       0.00000000       0.00000000      -0.45658720
2
Properties=species:S:1:pos:R:3:forces:R:3 energy=-5.483487977648571 pbc="F F F"
Zr       0.00000000       0.00000000       0.00000000       0.00000000       0.00000000       0.40958387
Zr       0.00000000       0.00000000       4.76545455       0.00000000       0.00000000      -0.40958387
2
Properties=species:S:1:pos:R:3:forces:R:3 energy=-5.460693896260141 pbc="F F F"
Zr       0.00000000       0.00000000       0.00000000       0.00000000       0.00000000       0.36654243
Zr       0.00000000       0.00000000       4.82424242       0.00000000       0.00000000      -0.36654243
2
Properties=species:S:1:pos:R:3:forces:R:3 energy=-5.440295552199126 pbc="F F F"
Zr       0.00000000       0.00000000       0.00000000       0.00000000       0.00000000       0.32825637
Zr       0.00000000       0.00000000       4.88303030       0.00000000       0.00000000      -0.32825637
2
Properties=species:S:1:pos:R:3:forces:R:3 energy=-5.4219977549793885 pbc="F F F"
Zr       0.00000000       0.00000000       0.00000000       0.00000000       0.00000000       0.29518801
Zr       0.00000000       0.00000000       4.94181818       0.00000000       0.00000000      -0.29518801
2
Properties=species:S:1:pos:R:3:forces:R:3 energy=-5.405486487718586 pbc="F F F"
Zr       0.00000000       0.00000000       0.00000000       0.00000000       0.00000000       0.26741117
Zr       0.00000000       0.00000000       5.00060606       0.00000000       0.00000000      -0.26741117
2
Properties=species:S:1:pos:R:3:forces:R:3 energy=-5.390459380366794 pbc="F F F"
Zr       0.00000000       0.00000000       0.00000000       0.00000000       0.00000000       0.24453369
Zr       0.00000000       0.00000000       5.05939394       0.00000000       0.00000000      -0.24453369
2
Properties=species:S:1:pos:R:3:forces:R:3 energy=-5.376652108476433 pbc="F F F"
Zr       0.00000000       0.00000000       0.00000000       0.00000000       0.00000000       0.22572426
Zr       0.00000000       0.00000000       5.11818182       0.00000000       0.00000000      -0.22572426
2
Properties=species:S:1:pos:R:3:forces:R:3 energy=-5.363861268714578 pbc="F F F"
Zr       0.00000000       0.00000000       0.00000000       0.00000000       0.00000000       0.20978844
Zr       0.00000000       0.00000000       5.17696970       0.00000000       0.00000000      -0.20978844
2
Properties=species:S:1:pos:R:3:forces:R:3 energy=-5.35195766694694 pbc="F F F"
Zr       0.00000000       0.00000000       0.00000000       0.00000000       0.00000000       0.19538501
Zr       0.00000000       0.00000000       5.23575758       0.00000000       0.00000000      -0.19538501
2
Properties=species:S:1:pos:R:3:forces:R:3 energy=-5.34088986683808 pbc="F F F"
Zr       0.00000000       0.00000000       0.00000000       0.00000000       0.00000000       0.18120605
Zr       0.00000000       0.00000000       5.29454545       0.00000000       0.00000000      -0.18120605
2
Properties=species:S:1:pos:R:3:forces:R:3 energy=-5.3306689944187795 pbc="F F F"
Zr       0.00000000       0.00000000       0.00000000       0.00000000       0.00000000       0.16624166
Zr       0.00000000       0.00000000       5.35333333       0.00000000       0.00000000      -0.16624166
2
Properties=species:S:1:pos:R:3:forces:R:3 energy=-5.321368573359296 pbc="F F F"
Zr       0.00000000       0.00000000       0.00000000       0.00000000       0.00000000       0.14991993
Zr       0.00000000       0.00000000       5.41212121       0.00000000       0.00000000      -0.14991993
2
Properties=species:S:1:pos:R:3:forces:R:3 energy=-5.3130710431799075 pbc="F F F"
Zr       0.00000000       0.00000000       0.00000000       0.00000000       0.00000000       0.13217407
Zr       0.00000000       0.00000000       5.47090909       0.00000000       0.00000000      -0.13217407
2
Properties=species:S:1:pos:R:3:forces:R:3 energy=-5.305846762576846 pbc="F F F"
Zr       0.00000000       0.00000000       0.00000000       0.00000000       0.00000000       0.11345552
Zr       0.00000000       0.00000000       5.52969697       0.00000000       0.00000000      -0.11345552
2
Properties=species:S:1:pos:R:3:forces:R:3 energy=-5.299731143413454 pbc="F F F"
Zr       0.00000000       0.00000000       0.00000000       0.00000000       0.00000000       0.09459695
Zr       0.00000000       0.00000000       5.58848485       0.00000000       0.00000000      -0.09459695
2
Properties=species:S:1:pos:R:3:forces:R:3 energy=-5.2947054695279085 pbc="F F F"
Zr       0.00000000       0.00000000       0.00000000       0.00000000       0.00000000       0.07669559
Zr       0.00000000       0.00000000       5.64727273       0.00000000       0.00000000      -0.07669559
2
Properties=species:S:1:pos:R:3:forces:R:3 energy=-5.290675934905186 pbc="F F F"
Zr       0.00000000       0.00000000       0.00000000       0.00000000       0.00000000       0.06083892
Zr       0.00000000       0.00000000       5.70606061       0.00000000       0.00000000      -0.06083892
2
Properties=species:S:1:pos:R:3:forces:R:3 energy=-5.287492805862419 pbc="F F F"
Zr       0.00000000       0.00000000       0.00000000       0.00000000       0.00000000       0.04794843
Zr       0.00000000       0.00000000       5.76484848       0.00000000       0.00000000      -0.04794843
2
Properties=species:S:1:pos:R:3:forces:R:3 energy=-5.28496945652135 pbc="F F F"
Zr       0.00000000       0.00000000       0.00000000       0.00000000       0.00000000       0.03856647
Zr       0.00000000       0.00000000       5.82363636       0.00000000       0.00000000      -0.03856647
2
Properties=species:S:1:pos:R:3:forces:R:3 energy=-5.2828900108741585 pbc="F F F"
Zr       0.00000000       0.00000000       0.00000000       0.00000000       0.00000000       0.03266224
Zr       0.00000000       0.00000000       5.88242424       0.00000000       0.00000000      -0.03266224
2
Properties=species:S:1:pos:R:3:forces:R:3 energy=-5.28107051732388 pbc="F F F"
Zr       0.00000000       0.00000000       0.00000000       0.00000000       0.00000000       0.02959250
Zr       0.00000000       0.00000000       5.94121212       0.00000000       0.00000000      -0.02959250
2
Properties=species:S:1:pos:R:3:forces:R:3 energy=-5.279377946143008 pbc="F F F"
Zr       0.00000000       0.00000000       0.00000000       0.00000000       0.00000000       0.02814879
Zr       0.00000000       0.00000000       6.00000000       0.00000000       0.00000000      -0.02814879
