2
Properties=species:S:1:pos:R:3:forces:R:3 energy=-159654.67111353955 pbc="F F F"
Ac       0.00000000       0.00000000       0.00000000       0.00000000       0.00000000 -329419.59375000
Ac       0.00000000       0.00000000       0.18000000       0.00000000       0.00000000  329419.59375000
2
Properties=species:S:1:pos:R:3:forces:R:3 energy=-170320.71798853955 pbc="F F F"
Ac       0.00000000       0.00000000       0.00000000       0.00000000       0.00000000  -80555.18750000
Ac       0.00000000       0.00000000       0.23878788       0.00000000       0.00000000   80555.18750000
2
Properties=species:S:1:pos:R:3:forces:R:3 energy=-171763.38986353955 pbc="F F F"
Ac       0.00000000       0.00000000       0.00000000       0.00000000       0.00000000   22106.31640625
Ac       0.00000000       0.00000000       0.29757576       0.00000000       0.00000000  -22106.31640625
2
Properties=species:S:1:pos:R:3:forces:R:3 energy=-168142.12423853955 pbc="F F F"
Ac       0.00000000       0.00000000       0.00000000       0.00000000       0.00000000  100872.95312500
Ac       0.00000000       0.00000000       0.35636364       0.00000000       0.00000000 -100872.95312500
2
Properties=species:S:1:pos:R:3:forces:R:3 energy=-159757.46798853955 pbc="F F F"
Ac       0.00000000       0.00000000       0.00000000       0.00000000       0.00000000  186414.70312500
Ac       0.00000000       0.00000000       0.41515152       0.00000000       0.00000000 -186414.70312500
2
Properties=species:S:1:pos:R:3:forces:R:3 energy=-146000.82736353955 pbc="F F F"
Ac       0.00000000       0.00000000       0.00000000       0.00000000       0.00000000  282929.25000000
Ac       0.00000000       0.00000000       0.47393939       0.00000000       0.00000000 -282929.25000000
2
Properties=species:S:1:pos:R:3:forces:R:3 energy=-126484.75705103953 pbc="F F F"
Ac       0.00000000       0.00000000       0.00000000       0.00000000       0.00000000  379413.25000000
Ac       0.00000000       0.00000000       0.53272727       0.00000000       0.00000000 -379413.25000000
2
Properties=species:S:1:pos:R:3:forces:R:3 energy=-101835.24923853637 pbc="F F F"
Ac       0.00000000       0.00000000       0.00000000       0.00000000       0.00000000  453014.15625000
Ac       0.00000000       0.00000000       0.59151515       0.00000000       0.00000000 -453014.15625000
2
Properties=species:S:1:pos:R:3:forces:R:3 energy=-74221.1476760332 pbc="F F F"
Ac       0.00000000       0.00000000       0.00000000       0.00000000       0.00000000  475846.90625000
Ac       0.00000000       0.00000000       0.65030303       0.00000000       0.00000000 -475846.90625000
2
Properties=species:S:1:pos:R:3:forces:R:3 energy=-46332.94064477686 pbc="F F F"
Ac       0.00000000       0.00000000       0.00000000       0.00000000       0.00000000  449368.68750000
Ac       0.00000000       0.00000000       0.70909091       0.00000000       0.00000000 -449368.68750000
2
Properties=species:S:1:pos:R:3:forces:R:3 energy=-23317.03439477053 pbc="F F F"
Ac       0.00000000       0.00000000       0.00000000       0.00000000       0.00000000  325161.78125000
Ac       0.00000000       0.00000000       0.76787879       0.00000000       0.00000000 -325161.78125000
2
Properties=species:S:1:pos:R:3:forces:R:3 energy=-8568.070527573525 pbc="F F F"
Ac       0.00000000       0.00000000       0.00000000       0.00000000       0.00000000  177671.25000000
Ac       0.00000000       0.00000000       0.82666667       0.00000000       0.00000000 -177671.25000000
2
Properties=species:S:1:pos:R:3:forces:R:3 energy=-1878.4567580264368 pbc="F F F"
Ac       0.00000000       0.00000000       0.00000000       0.00000000       0.00000000   58687.18359375
Ac       0.00000000       0.00000000       0.88545455       0.00000000       0.00000000  -58687.18359375
2
Properties=species:S:1:pos:R:3:forces:R:3 energy=-160.06132648570727 pbc="F F F"
Ac       0.00000000       0.00000000       0.00000000       0.00000000       0.00000000   21079.40625000
Ac       0.00000000       0.00000000       0.94424242       0.00000000       0.00000000  -21079.40625000
2
Properties=species:S:1:pos:R:3:forces:R:3 energy=94.20030074006876 pbc="F F F"
Ac       0.00000000       0.00000000       0.00000000       0.00000000       0.00000000   -2458.31640625
Ac       0.00000000       0.00000000       1.00303030       0.00000000       0.00000000    2458.31640625
2
Properties=species:S:1:pos:R:3:forces:R:3 energy=-167.65879956371424 pbc="F F F"
Ac       0.00000000       0.00000000       0.00000000       0.00000000       0.00000000    1911.31152344
Ac       0.00000000       0.00000000       1.06181818       0.00000000       0.00000000   -1911.31152344
2
Properties=species:S:1:pos:R:3:forces:R:3 energy=-46.33198676888847 pbc="F F F"
Ac       0.00000000       0.00000000       0.00000000       0.00000000       0.00000000    1739.29370117
Ac       0.00000000       0.00000000       1.12060606       0.00000000       0.00000000   -1739.29370117
2
Properties=species:S:1:pos:R:3:forces:R:3 energy=-48.796105656715916 pbc="F F F"
Ac       0.00000000       0.00000000       0.00000000       0.00000000       0.00000000    -273.13348389
Ac       0.00000000       0.00000000       1.17939394       0.00000000       0.00000000     273.13348389
2
Properties=species:S:1:pos:R:3:forces:R:3 energy=-61.76057548085269 pbc="F F F"
Ac       0.00000000       0.00000000       0.00000000       0.00000000       0.00000000    -175.76925659
Ac       0.00000000       0.00000000       1.23818182       0.00000000       0.00000000     175.76925659
2
Properties=species:S:1:pos:R:3:forces:R:3 energy=-70.4592295447836 pbc="F F F"
Ac       0.00000000       0.00000000       0.00000000       0.00000000       0.00000000    -131.95297241
Ac       0.00000000       0.00000000       1.29696970       0.00000000       0.00000000     131.95297241
2
Properties=species:S:1:pos:R:3:forces:R:3 energy=-77.63139432239161 pbc="F F F"
Ac       0.00000000       0.00000000       0.00000000       0.00000000       0.00000000    -109.74727631
Ac       0.00000000       0.00000000       1.35575758       0.00000000       0.00000000     109.74727631
2
Properties=species:S:1:pos:R:3:forces:R:3 energy=-83.18367838571622 pbc="F F F"
Ac       0.00000000       0.00000000       0.00000000       0.00000000       0.00000000     -79.55046844
Ac       0.00000000       0.00000000       1.41454545       0.00000000       0.00000000      79.55046844
2
Properties=species:S:1:pos:R:3:forces:R:3 energy=-87.60273029749558 pbc="F F F"
Ac       0.00000000       0.00000000       0.00000000       0.00000000       0.00000000     -82.48783112
Ac       0.00000000       0.00000000       1.47333333       0.00000000       0.00000000      82.48783112
2
Properties=species:S:1:pos:R:3:forces:R:3 energy=-93.54597496548055 pbc="F F F"
Ac       0.00000000       0.00000000       0.00000000       0.00000000       0.00000000    -112.55707550
Ac       0.00000000       0.00000000       1.53212121       0.00000000       0.00000000     112.55707550
2
Properties=species:S:1:pos:R:3:forces:R:3 energy=-99.93830100051098 pbc="F F F"
Ac       0.00000000       0.00000000       0.00000000       0.00000000       0.00000000    -101.77863312
Ac       0.00000000       0.00000000       1.59090909       0.00000000       0.00000000     101.77863312
2
Properties=species:S:1:pos:R:3:forces:R:3 energy=-105.45644331423199 pbc="F F F"
Ac       0.00000000       0.00000000       0.00000000       0.00000000       0.00000000     -86.55510712
Ac       0.00000000       0.00000000       1.64969697       0.00000000       0.00000000      86.55510712
2
Properties=species:S:1:pos:R:3:forces:R:3 energy=-110.20345975530041 pbc="F F F"
Ac       0.00000000       0.00000000       0.00000000       0.00000000       0.00000000     -75.63222504
Ac       0.00000000       0.00000000       1.70848485       0.00000000       0.00000000      75.63222504
2
Properties=species:S:1:pos:R:3:forces:R:3 energy=-114.39557498145513 pbc="F F F"
Ac       0.00000000       0.00000000       0.00000000       0.00000000       0.00000000     -66.96750641
Ac       0.00000000       0.00000000       1.76727273       0.00000000       0.00000000      66.96750641
2
Properties=species:S:1:pos:R:3:forces:R:3 energy=-118.02767728885671 pbc="F F F"
Ac       0.00000000       0.00000000       0.00000000       0.00000000       0.00000000     -55.94313431
Ac       0.00000000       0.00000000       1.82606061       0.00000000       0.00000000      55.94313431
2
Properties=species:S:1:pos:R:3:forces:R:3 energy=-120.90960399980683 pbc="F F F"
Ac       0.00000000       0.00000000       0.00000000       0.00000000       0.00000000     -41.85853195
Ac       0.00000000       0.00000000       1.88484848       0.00000000       0.00000000      41.85853195
2
Properties=species:S:1:pos:R:3:forces:R:3 energy=-122.96456524250937 pbc="F F F"
Ac       0.00000000       0.00000000       0.00000000       0.00000000       0.00000000     -28.49327660
Ac       0.00000000       0.00000000       1.94363636       0.00000000       0.00000000      28.49327660
2
Properties=species:S:1:pos:R:3:forces:R:3 energy=-124.32964595889486 pbc="F F F"
Ac       0.00000000       0.00000000       0.00000000       0.00000000       0.00000000     -18.60149384
Ac       0.00000000       0.00000000       2.00242424       0.00000000       0.00000000      18.60149384
2
Properties=species:S:1:pos:R:3:forces:R:3 energy=-125.22494652962058 pbc="F F F"
Ac       0.00000000       0.00000000       0.00000000       0.00000000       0.00000000     -12.41877747
Ac       0.00000000       0.00000000       2.06121212       0.00000000       0.00000000      12.41877747
2
Properties=species:S:1:pos:R:3:forces:R:3 energy=-125.84571076796102 pbc="F F F"
Ac       0.00000000       0.00000000       0.00000000       0.00000000       0.00000000      -9.08267212
Ac       0.00000000       0.00000000       2.12000000       0.00000000       0.00000000       9.08267212
2
Properties=species:S:1:pos:R:3:forces:R:3 energy=-126.32707811707343 pbc="F F F"
Ac       0.00000000       0.00000000       0.00000000       0.00000000       0.00000000      -7.50332451
Ac       0.00000000       0.00000000       2.17878788       0.00000000       0.00000000       7.50332451
2
Properties=species:S:1:pos:R:3:forces:R:3 energy=-126.74584602746334 pbc="F F F"
Ac       0.00000000       0.00000000       0.00000000       0.00000000       0.00000000      -6.85670328
Ac       0.00000000       0.00000000       2.23757576       0.00000000       0.00000000       6.85670328
2
Properties=species:S:1:pos:R:3:forces:R:3 energy=-127.1443347220852 pbc="F F F"
Ac       0.00000000       0.00000000       0.00000000       0.00000000       0.00000000      -6.78198528
Ac       0.00000000       0.00000000       2.29636364       0.00000000       0.00000000       6.78198528
2
Properties=species:S:1:pos:R:3:forces:R:3 energy=-127.55146720392875 pbc="F F F"
Ac       0.00000000       0.00000000       0.00000000       0.00000000       0.00000000      -7.12403679
Ac       0.00000000       0.00000000       2.35515152       0.00000000       0.00000000       7.12403679
2
Properties=species:S:1:pos:R:3:forces:R:3 energy=-127.98613381900734 pbc="F F F"
Ac       0.00000000       0.00000000       0.00000000       0.00000000       0.00000000      -7.67795229
Ac       0.00000000       0.00000000       2.41393939       0.00000000       0.00000000       7.67795229
2
Properties=species:S:1:pos:R:3:forces:R:3 energy=-128.4534385879128 pbc="F F F"
Ac       0.00000000       0.00000000       0.00000000       0.00000000       0.00000000      -8.19393444
Ac       0.00000000       0.00000000       2.47272727       0.00000000       0.00000000       8.19393444
2
Properties=species:S:1:pos:R:3:forces:R:3 energy=-128.94461529831497 pbc="F F F"
Ac       0.00000000       0.00000000       0.00000000       0.00000000       0.00000000      -8.46129131
Ac       0.00000000       0.00000000       2.53151515       0.00000000       0.00000000       8.46129131
2
Properties=species:S:1:pos:R:3:forces:R:3 energy=-129.44094899474345 pbc="F F F"
Ac       0.00000000       0.00000000       0.00000000       0.00000000       0.00000000      -8.35834599
Ac       0.00000000       0.00000000       2.59030303       0.00000000       0.00000000       8.35834599
2
Properties=species:S:1:pos:R:3:forces:R:3 energy=-129.91991765068903 pbc="F F F"
Ac       0.00000000       0.00000000       0.00000000       0.00000000       0.00000000      -7.87980986
Ac       0.00000000       0.00000000       2.64909091       0.00000000       0.00000000       7.87980986
2
Properties=species:S:1:pos:R:3:forces:R:3 energy=-130.36198996229874 pbc="F F F"
Ac       0.00000000       0.00000000       0.00000000       0.00000000       0.00000000      -7.12545252
Ac       0.00000000       0.00000000       2.70787879       0.00000000       0.00000000       7.12545252
2
Properties=species:S:1:pos:R:3:forces:R:3 energy=-130.75509617990681 pbc="F F F"
Ac       0.00000000       0.00000000       0.00000000       0.00000000       0.00000000      -6.23747778
Ac       0.00000000       0.00000000       2.76666667       0.00000000       0.00000000       6.23747778
2
Properties=species:S:1:pos:R:3:forces:R:3 energy=-131.09502479220083 pbc="F F F"
Ac       0.00000000       0.00000000       0.00000000       0.00000000       0.00000000      -5.33028030
Ac       0.00000000       0.00000000       2.82545455       0.00000000       0.00000000       5.33028030
2
Properties=species:S:1:pos:R:3:forces:R:3 energy=-131.3826302153405 pbc="F F F"
Ac       0.00000000       0.00000000       0.00000000       0.00000000       0.00000000      -4.46304655
Ac       0.00000000       0.00000000       2.88424242       0.00000000       0.00000000       4.46304655
2
Properties=species:S:1:pos:R:3:forces:R:3 energy=-131.62094891033544 pbc="F F F"
Ac       0.00000000       0.00000000       0.00000000       0.00000000       0.00000000      -3.65552640
Ac       0.00000000       0.00000000       2.94303030       0.00000000       0.00000000       3.65552640
2
Properties=species:S:1:pos:R:3:forces:R:3 energy=-131.81371921714953 pbc="F F F"
Ac       0.00000000       0.00000000       0.00000000       0.00000000       0.00000000      -2.91370583
Ac       0.00000000       0.00000000       3.00181818       0.00000000       0.00000000       2.91370583
2
Properties=species:S:1:pos:R:3:forces:R:3 energy=-131.96490826888348 pbc="F F F"
Ac       0.00000000       0.00000000       0.00000000       0.00000000       0.00000000      -2.24200273
Ac       0.00000000       0.00000000       3.06060606       0.00000000       0.00000000       2.24200273
2
Properties=species:S:1:pos:R:3:forces:R:3 energy=-132.07874269625472 pbc="F F F"
Ac       0.00000000       0.00000000       0.00000000       0.00000000       0.00000000      -1.64270747
Ac       0.00000000       0.00000000       3.11939394       0.00000000       0.00000000       1.64270747
2
Properties=species:S:1:pos:R:3:forces:R:3 energy=-132.15941853320683 pbc="F F F"
Ac       0.00000000       0.00000000       0.00000000       0.00000000       0.00000000      -1.11339390
Ac       0.00000000       0.00000000       3.17818182       0.00000000       0.00000000       1.11339390
2
Properties=species:S:1:pos:R:3:forces:R:3 energy=-132.2109182793357 pbc="F F F"
Ac       0.00000000       0.00000000       0.00000000       0.00000000       0.00000000      -0.64875710
Ac       0.00000000       0.00000000       3.23696970       0.00000000       0.00000000       0.64875710
2
Properties=species:S:1:pos:R:3:forces:R:3 energy=-132.23690393631028 pbc="F F F"
Ac       0.00000000       0.00000000       0.00000000       0.00000000       0.00000000      -0.24566117
Ac       0.00000000       0.00000000       3.29575758       0.00000000       0.00000000       0.24566117
2
Properties=species:S:1:pos:R:3:forces:R:3 energy=-132.24105266955405 pbc="F F F"
Ac       0.00000000       0.00000000       0.00000000       0.00000000       0.00000000       0.09326079
Ac       0.00000000       0.00000000       3.35454545       0.00000000       0.00000000      -0.09326079
2
Properties=species:S:1:pos:R:3:forces:R:3 energy=-132.22733174521636 pbc="F F F"
Ac       0.00000000       0.00000000       0.00000000       0.00000000       0.00000000       0.36088884
Ac       0.00000000       0.00000000       3.41333333       0.00000000       0.00000000      -0.36088884
2
Properties=species:S:1:pos:R:3:forces:R:3 energy=-132.20013549180658 pbc="F F F"
Ac       0.00000000       0.00000000       0.00000000       0.00000000       0.00000000       0.55148911
Ac       0.00000000       0.00000000       3.47212121       0.00000000       0.00000000      -0.55148911
2
Properties=species:S:1:pos:R:3:forces:R:3 energy=-132.1639651317209 pbc="F F F"
Ac       0.00000000       0.00000000       0.00000000       0.00000000       0.00000000       0.66763520
Ac       0.00000000       0.00000000       3.53090909       0.00000000       0.00000000      -0.66763520
2
Properties=species:S:1:pos:R:3:forces:R:3 energy=-132.1228335680916 pbc="F F F"
Ac       0.00000000       0.00000000       0.00000000       0.00000000       0.00000000       0.72332883
Ac       0.00000000       0.00000000       3.58969697       0.00000000       0.00000000      -0.72332883
2
Properties=species:S:1:pos:R:3:forces:R:3 energy=-132.0796550839099 pbc="F F F"
Ac       0.00000000       0.00000000       0.00000000       0.00000000       0.00000000       0.74098200
Ac       0.00000000       0.00000000       3.64848485       0.00000000       0.00000000      -0.74098200
2
Properties=species:S:1:pos:R:3:forces:R:3 energy=-132.0359858919264 pbc="F F F"
Ac       0.00000000       0.00000000       0.00000000       0.00000000       0.00000000       0.74411535
Ac       0.00000000       0.00000000       3.70727273       0.00000000       0.00000000      -0.74411535
2
Properties=species:S:1:pos:R:3:forces:R:3 energy=-131.9921004666106 pbc="F F F"
Ac       0.00000000       0.00000000       0.00000000       0.00000000       0.00000000       0.75031900
Ac       0.00000000       0.00000000       3.76606061       0.00000000       0.00000000      -0.75031900
2
Properties=species:S:1:pos:R:3:forces:R:3 energy=-131.9475408352143 pbc="F F F"
Ac       0.00000000       0.00000000       0.00000000       0.00000000       0.00000000       0.76771420
Ac       0.00000000       0.00000000       3.82484848       0.00000000       0.00000000      -0.76771420
2
Properties=species:S:1:pos:R:3:forces:R:3 energy=-131.9016354494599 pbc="F F F"
Ac       0.00000000       0.00000000       0.00000000       0.00000000       0.00000000       0.79523170
Ac       0.00000000       0.00000000       3.88363636       0.00000000       0.00000000      -0.79523170
2
Properties=species:S:1:pos:R:3:forces:R:3 energy=-131.85398738759454 pbc="F F F"
Ac       0.00000000       0.00000000       0.00000000       0.00000000       0.00000000       0.82564080
Ac       0.00000000       0.00000000       3.94242424       0.00000000       0.00000000      -0.82564080
2
Properties=species:S:1:pos:R:3:forces:R:3 energy=-131.8046879204165 pbc="F F F"
Ac       0.00000000       0.00000000       0.00000000       0.00000000       0.00000000       0.85008401
Ac       0.00000000       0.00000000       4.00121212       0.00000000       0.00000000      -0.85008401
2
Properties=species:S:1:pos:R:3:forces:R:3 energy=-131.75427091864142 pbc="F F F"
Ac       0.00000000       0.00000000       0.00000000       0.00000000       0.00000000       0.86239803
Ac       0.00000000       0.00000000       4.06000000       0.00000000       0.00000000      -0.86239803
2
Properties=species:S:1:pos:R:3:forces:R:3 energy=-131.70354487950988 pbc="F F F"
Ac       0.00000000       0.00000000       0.00000000       0.00000000       0.00000000       0.86127323
Ac       0.00000000       0.00000000       4.11878788       0.00000000       0.00000000      -0.86127323
2
Properties=species:S:1:pos:R:3:forces:R:3 energy=-131.65322671268208 pbc="F F F"
Ac       0.00000000       0.00000000       0.00000000       0.00000000       0.00000000       0.84955996
Ac       0.00000000       0.00000000       4.17757576       0.00000000       0.00000000      -0.84955996
2
Properties=species:S:1:pos:R:3:forces:R:3 energy=-131.60377391890063 pbc="F F F"
Ac       0.00000000       0.00000000       0.00000000       0.00000000       0.00000000       0.83214635
Ac       0.00000000       0.00000000       4.23636364       0.00000000       0.00000000      -0.83214635
2
Properties=species:S:1:pos:R:3:forces:R:3 energy=-131.5553846438436 pbc="F F F"
Ac       0.00000000       0.00000000       0.00000000       0.00000000       0.00000000       0.81414557
Ac       0.00000000       0.00000000       4.29515152       0.00000000       0.00000000      -0.81414557
2
Properties=species:S:1:pos:R:3:forces:R:3 energy=-131.507967043337 pbc="F F F"
Ac       0.00000000       0.00000000       0.00000000       0.00000000       0.00000000       0.80004519
Ac       0.00000000       0.00000000       4.35393939       0.00000000       0.00000000      -0.80004519
2
Properties=species:S:1:pos:R:3:forces:R:3 energy=-131.46118515158875 pbc="F F F"
Ac       0.00000000       0.00000000       0.00000000       0.00000000       0.00000000       0.79335266
Ac       0.00000000       0.00000000       4.41272727       0.00000000       0.00000000      -0.79335266
2
Properties=species:S:1:pos:R:3:forces:R:3 energy=-131.4145046163742 pbc="F F F"
Ac       0.00000000       0.00000000       0.00000000       0.00000000       0.00000000       0.79630446
Ac       0.00000000       0.00000000       4.47151515       0.00000000       0.00000000      -0.79630446
2
Properties=species:S:1:pos:R:3:forces:R:3 energy=-131.3673453217728 pbc="F F F"
Ac       0.00000000       0.00000000       0.00000000       0.00000000       0.00000000       0.80946445
Ac       0.00000000       0.00000000       4.53030303       0.00000000       0.00000000      -0.80946445
2
Properties=species:S:1:pos:R:3:forces:R:3 energy=-131.3191576377639 pbc="F F F"
Ac       0.00000000       0.00000000       0.00000000       0.00000000       0.00000000       0.83142591
Ac       0.00000000       0.00000000       4.58909091       0.00000000       0.00000000      -0.83142591
2
Properties=species:S:1:pos:R:3:forces:R:3 energy=-131.26948350290039 pbc="F F F"
Ac       0.00000000       0.00000000       0.00000000       0.00000000       0.00000000       0.85897660
Ac       0.00000000       0.00000000       4.64787879       0.00000000       0.00000000      -0.85897660
2
Properties=species:S:1:pos:R:3:forces:R:3 energy=-131.21813950126688 pbc="F F F"
Ac       0.00000000       0.00000000       0.00000000       0.00000000       0.00000000       0.88764250
Ac       0.00000000       0.00000000       4.70666667       0.00000000       0.00000000      -0.88764250
2
Properties=species:S:1:pos:R:3:forces:R:3 energy=-131.16518634806962 pbc="F F F"
Ac       0.00000000       0.00000000       0.00000000       0.00000000       0.00000000       0.91289502
Ac       0.00000000       0.00000000       4.76545455       0.00000000       0.00000000      -0.91289502
2
Properties=species:S:1:pos:R:3:forces:R:3 energy=-131.11092890547548 pbc="F F F"
Ac       0.00000000       0.00000000       0.00000000       0.00000000       0.00000000       0.93147159
Ac       0.00000000       0.00000000       4.82424242       0.00000000       0.00000000      -0.93147159
2
Properties=species:S:1:pos:R:3:forces:R:3 energy=-131.0558246235419 pbc="F F F"
Ac       0.00000000       0.00000000       0.00000000       0.00000000       0.00000000       0.94251591
Ac       0.00000000       0.00000000       4.88303030       0.00000000       0.00000000      -0.94251591
2
Properties=species:S:1:pos:R:3:forces:R:3 energy=-131.00022412496384 pbc="F F F"
Ac       0.00000000       0.00000000       0.00000000       0.00000000       0.00000000       0.94795859
Ac       0.00000000       0.00000000       4.94181818       0.00000000       0.00000000      -0.94795859
2
Properties=species:S:1:pos:R:3:forces:R:3 energy=-130.9444017606657 pbc="F F F"
Ac       0.00000000       0.00000000       0.00000000       0.00000000       0.00000000       0.95175678
Ac       0.00000000       0.00000000       5.00060606       0.00000000       0.00000000      -0.95175678
2
Properties=species:S:1:pos:R:3:forces:R:3 energy=-130.88828092625556 pbc="F F F"
Ac       0.00000000       0.00000000       0.00000000       0.00000000       0.00000000       0.95803154
Ac       0.00000000       0.00000000       5.05939394       0.00000000       0.00000000      -0.95803154
2
Properties=species:S:1:pos:R:3:forces:R:3 energy=-130.83166294386123 pbc="F F F"
Ac       0.00000000       0.00000000       0.00000000       0.00000000       0.00000000       0.96851397
Ac       0.00000000       0.00000000       5.11818182       0.00000000       0.00000000      -0.96851397
2
Properties=species:S:1:pos:R:3:forces:R:3 energy=-130.77439493732027 pbc="F F F"
Ac       0.00000000       0.00000000       0.00000000       0.00000000       0.00000000       0.97957671
Ac       0.00000000       0.00000000       5.17696970       0.00000000       0.00000000      -0.97957671
2
Properties=species:S:1:pos:R:3:forces:R:3 energy=-130.71670549702895 pbc="F F F"
Ac       0.00000000       0.00000000       0.00000000       0.00000000       0.00000000       0.97990668
Ac       0.00000000       0.00000000       5.23575758       0.00000000       0.00000000      -0.97990668
2
Properties=species:S:1:pos:R:3:forces:R:3 energy=-130.65972350411306 pbc="F F F"
Ac       0.00000000       0.00000000       0.00000000       0.00000000       0.00000000       0.95244908
Ac       0.00000000       0.00000000       5.29454545       0.00000000       0.00000000      -0.95244908
2
Properties=species:S:1:pos:R:3:forces:R:3 energy=-130.60540182381118 pbc="F F F"
Ac       0.00000000       0.00000000       0.00000000       0.00000000       0.00000000       0.89119887
Ac       0.00000000       0.00000000       5.35333333       0.00000000       0.00000000      -0.89119887
2
Properties=species:S:1:pos:R:3:forces:R:3 energy=-130.55491514529442 pbc="F F F"
Ac       0.00000000       0.00000000       0.00000000       0.00000000       0.00000000       0.83263749
Ac       0.00000000       0.00000000       5.41212121       0.00000000       0.00000000      -0.83263749
2
Properties=species:S:1:pos:R:3:forces:R:3 energy=-130.5063253901078 pbc="F F F"
Ac       0.00000000       0.00000000       0.00000000       0.00000000       0.00000000       0.83049667
Ac       0.00000000       0.00000000       5.47090909       0.00000000       0.00000000      -0.83049667
2
Properties=species:S:1:pos:R:3:forces:R:3 energy=-130.45697733254946 pbc="F F F"
Ac       0.00000000       0.00000000       0.00000000       0.00000000       0.00000000       0.84076542
Ac       0.00000000       0.00000000       5.52969697       0.00000000       0.00000000      -0.84076542
2
Properties=species:S:1:pos:R:3:forces:R:3 energy=-130.40912911817733 pbc="F F F"
Ac       0.00000000       0.00000000       0.00000000       0.00000000       0.00000000       0.77236754
Ac       0.00000000       0.00000000       5.58848485       0.00000000       0.00000000      -0.77236754
2
Properties=species:S:1:pos:R:3:forces:R:3 energy=-130.3670530685448 pbc="F F F"
Ac       0.00000000       0.00000000       0.00000000       0.00000000       0.00000000       0.66275287
Ac       0.00000000       0.00000000       5.64727273       0.00000000       0.00000000      -0.66275287
2
Properties=species:S:1:pos:R:3:forces:R:3 energy=-130.3294826122928 pbc="F F F"
Ac       0.00000000       0.00000000       0.00000000       0.00000000       0.00000000       0.63773406
Ac       0.00000000       0.00000000       5.70606061       0.00000000       0.00000000      -0.63773406
2
Properties=species:S:1:pos:R:3:forces:R:3 energy=-130.2897953763635 pbc="F F F"
Ac       0.00000000       0.00000000       0.00000000       0.00000000       0.00000000       0.71408767
Ac       0.00000000       0.00000000       5.76484848       0.00000000       0.00000000      -0.71408767
2
Properties=species:S:1:pos:R:3:forces:R:3 energy=-130.24770142158994 pbc="F F F"
Ac       0.00000000       0.00000000       0.00000000       0.00000000       0.00000000       0.68137306
Ac       0.00000000       0.00000000       5.82363636       0.00000000       0.00000000      -0.68137306
2
Properties=species:S:1:pos:R:3:forces:R:3 energy=-130.21449227088533 pbc="F F F"
Ac       0.00000000       0.00000000       0.00000000       0.00000000       0.00000000       0.42492399
Ac       0.00000000       0.00000000       5.88242424       0.00000000       0.00000000      -0.42492399
2
Properties=species:S:1:pos:R:3:forces:R:3 energy=-130.19857559780257 pbc="F F F"
Ac       0.00000000       0.00000000       0.00000000       0.00000000       0.00000000       0.12813126
Ac       0.00000000       0.00000000       5.94121212       0.00000000       0.00000000      -0.12813126
2
Properties=species:S:1:pos:R:3:forces:R:3 energy=-130.19584689737368 pbc="F F F"
Ac       0.00000000       0.00000000       0.00000000       0.00000000       0.00000000       0.00549775
Ac       0.00000000       0.00000000       6.00000000       0.00000000       0.00000000      -0.00549775
