2
Properties=species:S:1:pos:R:3:forces:R:3 energy=1956.1197365007602 pbc="F F F"
Ar       0.00000000       0.00000000       0.00000000       0.00000000       0.00000000  -29324.14062500
Ar       0.00000000       0.00000000       0.18000000       0.00000000       0.00000000   29324.14062500
2
Properties=species:S:1:pos:R:3:forces:R:3 energy=872.7405861101352 pbc="F F F"
Ar       0.00000000       0.00000000       0.00000000       0.00000000       0.00000000  -11054.66210938
Ar       0.00000000       0.00000000       0.23878788       0.00000000       0.00000000   11054.66210938
2
Properties=species:S:1:pos:R:3:forces:R:3 energy=433.3664100855364 pbc="F F F"
Ar       0.00000000       0.00000000       0.00000000       0.00000000       0.00000000   -4882.36328125
Ar       0.00000000       0.00000000       0.29757576       0.00000000       0.00000000    4882.36328125
2
Properties=species:S:1:pos:R:3:forces:R:3 energy=229.52159197069804 pbc="F F F"
Ar       0.00000000       0.00000000       0.00000000       0.00000000       0.00000000   -2394.79931641
Ar       0.00000000       0.00000000       0.35636364       0.00000000       0.00000000    2394.79931641
2
Properties=species:S:1:pos:R:3:forces:R:3 energy=126.07505876876098 pbc="F F F"
Ar       0.00000000       0.00000000       0.00000000       0.00000000       0.00000000   -1262.11425781
Ar       0.00000000       0.00000000       0.41515152       0.00000000       0.00000000    1262.11425781
2
Properties=species:S:1:pos:R:3:forces:R:3 energy=70.2118767040577 pbc="F F F"
Ar       0.00000000       0.00000000       0.00000000       0.00000000       0.00000000    -700.19519043
Ar       0.00000000       0.00000000       0.47393939       0.00000000       0.00000000     700.19519043
2
Properties=species:S:1:pos:R:3:forces:R:3 energy=38.64593966696909 pbc="F F F"
Ar       0.00000000       0.00000000       0.00000000       0.00000000       0.00000000    -403.80694580
Ar       0.00000000       0.00000000       0.53272727       0.00000000       0.00000000     403.80694580
2
Properties=species:S:1:pos:R:3:forces:R:3 energy=20.179741707755326 pbc="F F F"
Ar       0.00000000       0.00000000       0.00000000       0.00000000       0.00000000    -240.07511902
Ar       0.00000000       0.00000000       0.59151515       0.00000000       0.00000000     240.07511902
2
Properties=species:S:1:pos:R:3:forces:R:3 energy=9.052343231104762 pbc="F F F"
Ar       0.00000000       0.00000000       0.00000000       0.00000000       0.00000000    -146.78950500
Ar       0.00000000       0.00000000       0.65030303       0.00000000       0.00000000     146.78950500
2
Properties=species:S:1:pos:R:3:forces:R:3 energy=2.1844605254948135 pbc="F F F"
Ar       0.00000000       0.00000000       0.00000000       0.00000000       0.00000000     -91.57869720
Ar       0.00000000       0.00000000       0.70909091       0.00000000       0.00000000      91.57869720
2
Properties=species:S:1:pos:R:3:forces:R:3 energy=-2.1385088767006284 pbc="F F F"
Ar       0.00000000       0.00000000       0.00000000       0.00000000       0.00000000     -58.21197891
Ar       0.00000000       0.00000000       0.76787879       0.00000000       0.00000000      58.21197891
2
Properties=species:S:1:pos:R:3:forces:R:3 energy=-4.907382041133132 pbc="F F F"
Ar       0.00000000       0.00000000       0.00000000       0.00000000       0.00000000     -37.60449219
Ar       0.00000000       0.00000000       0.82666667       0.00000000       0.00000000      37.60449219
2
Properties=species:S:1:pos:R:3:forces:R:3 energy=-6.709220367044914 pbc="F F F"
Ar       0.00000000       0.00000000       0.00000000       0.00000000       0.00000000     -24.68230820
Ar       0.00000000       0.00000000       0.88545455       0.00000000       0.00000000      24.68230820
2
Properties=species:S:1:pos:R:3:forces:R:3 energy=-7.900133943682137 pbc="F F F"
Ar       0.00000000       0.00000000       0.00000000       0.00000000       0.00000000     -16.42413330
Ar       0.00000000       0.00000000       0.94424242       0.00000000       0.00000000      16.42413330
2
Properties=species:S:1:pos:R:3:forces:R:3 energy=-8.694292741428749 pbc="F F F"
Ar       0.00000000       0.00000000       0.00000000       0.00000000       0.00000000     -10.94994736
Ar       0.00000000       0.00000000       1.00303030       0.00000000       0.00000000      10.94994736
2
Properties=species:S:1:pos:R:3:forces:R:3 energy=-9.221186172229787 pbc="F F F"
Ar       0.00000000       0.00000000       0.00000000       0.00000000       0.00000000      -7.20548820
Ar       0.00000000       0.00000000       1.06181818       0.00000000       0.00000000       7.20548820
2
Properties=species:S:1:pos:R:3:forces:R:3 energy=-9.56404328835537 pbc="F F F"
Ar       0.00000000       0.00000000       0.00000000       0.00000000       0.00000000      -4.62154245
Ar       0.00000000       0.00000000       1.12060606       0.00000000       0.00000000       4.62154245
2
Properties=species:S:1:pos:R:3:forces:R:3 energy=-9.781131668934087 pbc="F F F"
Ar       0.00000000       0.00000000       0.00000000       0.00000000       0.00000000      -2.88320804
Ar       0.00000000       0.00000000       1.17939394       0.00000000       0.00000000       2.88320804
2
Properties=species:S:1:pos:R:3:forces:R:3 energy=-9.914435854648383 pbc="F F F"
Ar       0.00000000       0.00000000       0.00000000       0.00000000       0.00000000      -1.72786701
Ar       0.00000000       0.00000000       1.23818182       0.00000000       0.00000000       1.72786701
2
Properties=species:S:1:pos:R:3:forces:R:3 energy=-9.99140734050115 pbc="F F F"
Ar       0.00000000       0.00000000       0.00000000       0.00000000       0.00000000      -0.94011462
Ar       0.00000000       0.00000000       1.29696970       0.00000000       0.00000000       0.94011462
2
Properties=species:S:1:pos:R:3:forces:R:3 energy=-10.02996755127958 pbc="F F F"
Ar       0.00000000       0.00000000       0.00000000       0.00000000       0.00000000      -0.40852579
Ar       0.00000000       0.00000000       1.35575758       0.00000000       0.00000000       0.40852579
2
Properties=species:S:1:pos:R:3:forces:R:3 energy=-10.043125531407284 pbc="F F F"
Ar       0.00000000       0.00000000       0.00000000       0.00000000       0.00000000      -0.06510497
Ar       0.00000000       0.00000000       1.41454545       0.00000000       0.00000000       0.06510497
2
Properties=species:S:1:pos:R:3:forces:R:3 energy=-10.040121400845633 pbc="F F F"
Ar       0.00000000       0.00000000       0.00000000       0.00000000       0.00000000       0.15011765
Ar       0.00000000       0.00000000       1.47333333       0.00000000       0.00000000      -0.15011765
2
Properties=species:S:1:pos:R:3:forces:R:3 energy=-10.027140655968816 pbc="F F F"
Ar       0.00000000       0.00000000       0.00000000       0.00000000       0.00000000       0.27976167
Ar       0.00000000       0.00000000       1.53212121       0.00000000       0.00000000      -0.27976167
2
Properties=species:S:1:pos:R:3:forces:R:3 energy=-10.008393729681972 pbc="F F F"
Ar       0.00000000       0.00000000       0.00000000       0.00000000       0.00000000       0.34963104
Ar       0.00000000       0.00000000       1.59090909       0.00000000       0.00000000      -0.34963104
2
Properties=species:S:1:pos:R:3:forces:R:3 energy=-9.986876068267438 pbc="F F F"
Ar       0.00000000       0.00000000       0.00000000       0.00000000       0.00000000       0.37639177
Ar       0.00000000       0.00000000       1.64969697       0.00000000       0.00000000      -0.37639177
2
Properties=species:S:1:pos:R:3:forces:R:3 energy=-9.964727665414127 pbc="F F F"
Ar       0.00000000       0.00000000       0.00000000       0.00000000       0.00000000       0.37309393
Ar       0.00000000       0.00000000       1.70848485       0.00000000       0.00000000      -0.37309393
2
Properties=species:S:1:pos:R:3:forces:R:3 energy=-9.943368488722163 pbc="F F F"
Ar       0.00000000       0.00000000       0.00000000       0.00000000       0.00000000       0.35138780
Ar       0.00000000       0.00000000       1.76727273       0.00000000       0.00000000      -0.35138780
2
Properties=species:S:1:pos:R:3:forces:R:3 energy=-9.923573811658368 pbc="F F F"
Ar       0.00000000       0.00000000       0.00000000       0.00000000       0.00000000       0.32138914
Ar       0.00000000       0.00000000       1.82606061       0.00000000       0.00000000      -0.32138914
2
Properties=species:S:1:pos:R:3:forces:R:3 energy=-9.905595335342138 pbc="F F F"
Ar       0.00000000       0.00000000       0.00000000       0.00000000       0.00000000       0.29054528
Ar       0.00000000       0.00000000       1.88484848       0.00000000       0.00000000      -0.29054528
2
Properties=species:S:1:pos:R:3:forces:R:3 energy=-9.889345246104613 pbc="F F F"
Ar       0.00000000       0.00000000       0.00000000       0.00000000       0.00000000       0.26305914
Ar       0.00000000       0.00000000       1.94363636       0.00000000       0.00000000      -0.26305914
2
Properties=species:S:1:pos:R:3:forces:R:3 energy=-9.874565967933075 pbc="F F F"
Ar       0.00000000       0.00000000       0.00000000       0.00000000       0.00000000       0.24066265
Ar       0.00000000       0.00000000       2.00242424       0.00000000       0.00000000      -0.24066265
2
Properties=species:S:1:pos:R:3:forces:R:3 energy=-9.860938882530958 pbc="F F F"
Ar       0.00000000       0.00000000       0.00000000       0.00000000       0.00000000       0.22387116
Ar       0.00000000       0.00000000       2.06121212       0.00000000       0.00000000      -0.22387116
2
Properties=species:S:1:pos:R:3:forces:R:3 energy=-9.848133917610452 pbc="F F F"
Ar       0.00000000       0.00000000       0.00000000       0.00000000       0.00000000       0.21265267
Ar       0.00000000       0.00000000       2.12000000       0.00000000       0.00000000      -0.21265267
2
Properties=species:S:1:pos:R:3:forces:R:3 energy=-9.83583053168725 pbc="F F F"
Ar       0.00000000       0.00000000       0.00000000       0.00000000       0.00000000       0.20676157
Ar       0.00000000       0.00000000       2.17878788       0.00000000       0.00000000      -0.20676157
2
Properties=species:S:1:pos:R:3:forces:R:3 energy=-9.823741549998783 pbc="F F F"
Ar       0.00000000       0.00000000       0.00000000       0.00000000       0.00000000       0.20509993
Ar       0.00000000       0.00000000       2.23757576       0.00000000       0.00000000      -0.20509993
2
Properties=species:S:1:pos:R:3:forces:R:3 energy=-9.811670390902874 pbc="F F F"
Ar       0.00000000       0.00000000       0.00000000       0.00000000       0.00000000       0.20578533
Ar       0.00000000       0.00000000       2.29636364       0.00000000       0.00000000      -0.20578533
2
Properties=species:S:1:pos:R:3:forces:R:3 energy=-9.799538716097267 pbc="F F F"
Ar       0.00000000       0.00000000       0.00000000       0.00000000       0.00000000       0.20684078
Ar       0.00000000       0.00000000       2.35515152       0.00000000       0.00000000      -0.20684078
2
Properties=species:S:1:pos:R:3:forces:R:3 energy=-9.787378807956728 pbc="F F F"
Ar       0.00000000       0.00000000       0.00000000       0.00000000       0.00000000       0.20645657
Ar       0.00000000       0.00000000       2.41393939       0.00000000       0.00000000      -0.20645657
2
Properties=species:S:1:pos:R:3:forces:R:3 energy=-9.775320211360976 pbc="F F F"
Ar       0.00000000       0.00000000       0.00000000       0.00000000       0.00000000       0.20326273
Ar       0.00000000       0.00000000       2.47272727       0.00000000       0.00000000      -0.20326273
2
Properties=species:S:1:pos:R:3:forces:R:3 energy=-9.7635496849171 pbc="F F F"
Ar       0.00000000       0.00000000       0.00000000       0.00000000       0.00000000       0.19655664
Ar       0.00000000       0.00000000       2.53151515       0.00000000       0.00000000      -0.19655664
2
Properties=species:S:1:pos:R:3:forces:R:3 energy=-9.752277820378584 pbc="F F F"
Ar       0.00000000       0.00000000       0.00000000       0.00000000       0.00000000       0.18639763
Ar       0.00000000       0.00000000       2.59030303       0.00000000       0.00000000      -0.18639763
2
Properties=species:S:1:pos:R:3:forces:R:3 energy=-9.741687545024185 pbc="F F F"
Ar       0.00000000       0.00000000       0.00000000       0.00000000       0.00000000       0.17351663
Ar       0.00000000       0.00000000       2.64909091       0.00000000       0.00000000      -0.17351663
2
Properties=species:S:1:pos:R:3:forces:R:3 energy=-9.731907419173039 pbc="F F F"
Ar       0.00000000       0.00000000       0.00000000       0.00000000       0.00000000       0.15904504
Ar       0.00000000       0.00000000       2.70787879       0.00000000       0.00000000      -0.15904504
2
Properties=species:S:1:pos:R:3:forces:R:3 energy=-9.7229954272851 pbc="F F F"
Ar       0.00000000       0.00000000       0.00000000       0.00000000       0.00000000       0.14415739
Ar       0.00000000       0.00000000       2.76666667       0.00000000       0.00000000      -0.14415739
2
Properties=species:S:1:pos:R:3:forces:R:3 energy=-9.714947559446063 pbc="F F F"
Ar       0.00000000       0.00000000       0.00000000       0.00000000       0.00000000       0.12977314
Ar       0.00000000       0.00000000       2.82545455       0.00000000       0.00000000      -0.12977314
2
Properties=species:S:1:pos:R:3:forces:R:3 energy=-9.707716888021514 pbc="F F F"
Ar       0.00000000       0.00000000       0.00000000       0.00000000       0.00000000       0.11643793
Ar       0.00000000       0.00000000       2.88424242       0.00000000       0.00000000      -0.11643793
2
Properties=species:S:1:pos:R:3:forces:R:3 energy=-9.701232641935224 pbc="F F F"
Ar       0.00000000       0.00000000       0.00000000       0.00000000       0.00000000       0.10437071
Ar       0.00000000       0.00000000       2.94303030       0.00000000       0.00000000      -0.10437071
2
Properties=species:S:1:pos:R:3:forces:R:3 energy=-9.695420237789563 pbc="F F F"
Ar       0.00000000       0.00000000       0.00000000       0.00000000       0.00000000       0.09358972
Ar       0.00000000       0.00000000       3.00181818       0.00000000       0.00000000      -0.09358972
2
Properties=species:S:1:pos:R:3:forces:R:3 energy=-9.690205094958742 pbc="F F F"
Ar       0.00000000       0.00000000       0.00000000       0.00000000       0.00000000       0.08402178
Ar       0.00000000       0.00000000       3.06060606       0.00000000       0.00000000      -0.08402178
2
Properties=species:S:1:pos:R:3:forces:R:3 energy=-9.685519315664791 pbc="F F F"
Ar       0.00000000       0.00000000       0.00000000       0.00000000       0.00000000       0.07556864
Ar       0.00000000       0.00000000       3.11939394       0.00000000       0.00000000      -0.07556864
2
Properties=species:S:1:pos:R:3:forces:R:3 energy=-9.681299780796742 pbc="F F F"
Ar       0.00000000       0.00000000       0.00000000       0.00000000       0.00000000       0.06813086
Ar       0.00000000       0.00000000       3.17818182       0.00000000       0.00000000      -0.06813086
2
Properties=species:S:1:pos:R:3:forces:R:3 energy=-9.677491013309448 pbc="F F F"
Ar       0.00000000       0.00000000       0.00000000       0.00000000       0.00000000       0.06161629
Ar       0.00000000       0.00000000       3.23696970       0.00000000       0.00000000      -0.06161629
2
Properties=species:S:1:pos:R:3:forces:R:3 energy=-9.674039460929416 pbc="F F F"
Ar       0.00000000       0.00000000       0.00000000       0.00000000       0.00000000       0.05593977
Ar       0.00000000       0.00000000       3.29575758       0.00000000       0.00000000      -0.05593977
2
Properties=species:S:1:pos:R:3:forces:R:3 energy=-9.670898266506278 pbc="F F F"
Ar       0.00000000       0.00000000       0.00000000       0.00000000       0.00000000       0.05102400
Ar       0.00000000       0.00000000       3.35454545       0.00000000       0.00000000      -0.05102400
2
Properties=species:S:1:pos:R:3:forces:R:3 energy=-9.668026321466074 pbc="F F F"
Ar       0.00000000       0.00000000       0.00000000       0.00000000       0.00000000       0.04679760
Ar       0.00000000       0.00000000       3.41333333       0.00000000       0.00000000      -0.04679760
2
Properties=species:S:1:pos:R:3:forces:R:3 energy=-9.665384452697902 pbc="F F F"
Ar       0.00000000       0.00000000       0.00000000       0.00000000       0.00000000       0.04319251
Ar       0.00000000       0.00000000       3.47212121       0.00000000       0.00000000      -0.04319251
2
Properties=species:S:1:pos:R:3:forces:R:3 energy=-9.662937333466344 pbc="F F F"
Ar       0.00000000       0.00000000       0.00000000       0.00000000       0.00000000       0.04013958
Ar       0.00000000       0.00000000       3.53090909       0.00000000       0.00000000      -0.04013958
2
Properties=species:S:1:pos:R:3:forces:R:3 energy=-9.660655398283678 pbc="F F F"
Ar       0.00000000       0.00000000       0.00000000       0.00000000       0.00000000       0.03756462
Ar       0.00000000       0.00000000       3.58969697       0.00000000       0.00000000      -0.03756462
2
Properties=species:S:1:pos:R:3:forces:R:3 energy=-9.658512932393432 pbc="F F F"
Ar       0.00000000       0.00000000       0.00000000       0.00000000       0.00000000       0.03538743
Ar       0.00000000       0.00000000       3.64848485       0.00000000       0.00000000      -0.03538743
2
Properties=species:S:1:pos:R:3:forces:R:3 energy=-9.656488082065788 pbc="F F F"
Ar       0.00000000       0.00000000       0.00000000       0.00000000       0.00000000       0.03352361
Ar       0.00000000       0.00000000       3.70727273       0.00000000       0.00000000      -0.03352361
2
Properties=species:S:1:pos:R:3:forces:R:3 energy=-9.654566666127046 pbc="F F F"
Ar       0.00000000       0.00000000       0.00000000       0.00000000       0.00000000       0.03188871
Ar       0.00000000       0.00000000       3.76606061       0.00000000       0.00000000      -0.03188871
2
Properties=species:S:1:pos:R:3:forces:R:3 energy=-9.652736457873486 pbc="F F F"
Ar       0.00000000       0.00000000       0.00000000       0.00000000       0.00000000       0.03040430
Ar       0.00000000       0.00000000       3.82484848       0.00000000       0.00000000      -0.03040430
2
Properties=species:S:1:pos:R:3:forces:R:3 energy=-9.650990046094327 pbc="F F F"
Ar       0.00000000       0.00000000       0.00000000       0.00000000       0.00000000       0.02900223
Ar       0.00000000       0.00000000       3.88363636       0.00000000       0.00000000      -0.02900223
2
Properties=species:S:1:pos:R:3:forces:R:3 energy=-9.649325788350065 pbc="F F F"
Ar       0.00000000       0.00000000       0.00000000       0.00000000       0.00000000       0.02762946
Ar       0.00000000       0.00000000       3.94242424       0.00000000       0.00000000      -0.02762946
2
Properties=species:S:1:pos:R:3:forces:R:3 energy=-9.64774208694668 pbc="F F F"
Ar       0.00000000       0.00000000       0.00000000       0.00000000       0.00000000       0.02624877
Ar       0.00000000       0.00000000       4.00121212       0.00000000       0.00000000      -0.02624877
2
Properties=species:S:1:pos:R:3:forces:R:3 energy=-9.646240247582726 pbc="F F F"
Ar       0.00000000       0.00000000       0.00000000       0.00000000       0.00000000       0.02483895
Ar       0.00000000       0.00000000       4.06000000       0.00000000       0.00000000      -0.02483895
2
Properties=species:S:1:pos:R:3:forces:R:3 energy=-9.644821611198779 pbc="F F F"
Ar       0.00000000       0.00000000       0.00000000       0.00000000       0.00000000       0.02339208
Ar       0.00000000       0.00000000       4.11878788       0.00000000       0.00000000      -0.02339208
2
Properties=species:S:1:pos:R:3:forces:R:3 energy=-9.643490414604402 pbc="F F F"
Ar       0.00000000       0.00000000       0.00000000       0.00000000       0.00000000       0.02191044
Ar       0.00000000       0.00000000       4.17757576       0.00000000       0.00000000      -0.02191044
2
Properties=species:S:1:pos:R:3:forces:R:3 energy=-9.64224615118418 pbc="F F F"
Ar       0.00000000       0.00000000       0.00000000       0.00000000       0.00000000       0.02040400
Ar       0.00000000       0.00000000       4.23636364       0.00000000       0.00000000      -0.02040400
2
Properties=species:S:1:pos:R:3:forces:R:3 energy=-9.641091193164648 pbc="F F F"
Ar       0.00000000       0.00000000       0.00000000       0.00000000       0.00000000       0.01888776
Ar       0.00000000       0.00000000       4.29515152       0.00000000       0.00000000      -0.01888776
2
Properties=species:S:1:pos:R:3:forces:R:3 energy=-9.640025065608611 pbc="F F F"
Ar       0.00000000       0.00000000       0.00000000       0.00000000       0.00000000       0.01738188
Ar       0.00000000       0.00000000       4.35393939       0.00000000       0.00000000      -0.01738188
2
Properties=species:S:1:pos:R:3:forces:R:3 energy=-9.639047292786918 pbc="F F F"
Ar       0.00000000       0.00000000       0.00000000       0.00000000       0.00000000       0.01591009
Ar       0.00000000       0.00000000       4.41272727       0.00000000       0.00000000      -0.01591009
2
Properties=species:S:1:pos:R:3:forces:R:3 energy=-9.638153582293267 pbc="F F F"
Ar       0.00000000       0.00000000       0.00000000       0.00000000       0.00000000       0.01449869
Ar       0.00000000       0.00000000       4.47151515       0.00000000       0.00000000      -0.01449869
2
Properties=species:S:1:pos:R:3:forces:R:3 energy=-9.637340581140467 pbc="F F F"
Ar       0.00000000       0.00000000       0.00000000       0.00000000       0.00000000       0.01317254
Ar       0.00000000       0.00000000       4.53030303       0.00000000       0.00000000      -0.01317254
2
Properties=species:S:1:pos:R:3:forces:R:3 energy=-9.636603008401856 pbc="F F F"
Ar       0.00000000       0.00000000       0.00000000       0.00000000       0.00000000       0.01194983
Ar       0.00000000       0.00000000       4.58909091       0.00000000       0.00000000      -0.01194983
2
Properties=species:S:1:pos:R:3:forces:R:3 energy=-9.635933652835426 pbc="F F F"
Ar       0.00000000       0.00000000       0.00000000       0.00000000       0.00000000       0.01083671
Ar       0.00000000       0.00000000       4.64787879       0.00000000       0.00000000      -0.01083671
2
Properties=species:S:1:pos:R:3:forces:R:3 energy=-9.635326222027443 pbc="F F F"
Ar       0.00000000       0.00000000       0.00000000       0.00000000       0.00000000       0.00982443
Ar       0.00000000       0.00000000       4.70666667       0.00000000       0.00000000      -0.00982443
2
Properties=species:S:1:pos:R:3:forces:R:3 energy=-9.634777250929009 pbc="F F F"
Ar       0.00000000       0.00000000       0.00000000       0.00000000       0.00000000       0.00889093
Ar       0.00000000       0.00000000       4.76545455       0.00000000       0.00000000      -0.00889093
2
Properties=species:S:1:pos:R:3:forces:R:3 energy=-9.634280374266481 pbc="F F F"
Ar       0.00000000       0.00000000       0.00000000       0.00000000       0.00000000       0.00800668
Ar       0.00000000       0.00000000       4.82424242       0.00000000       0.00000000      -0.00800668
2
Properties=species:S:1:pos:R:3:forces:R:3 energy=-9.633834911194224 pbc="F F F"
Ar       0.00000000       0.00000000       0.00000000       0.00000000       0.00000000       0.00714505
Ar       0.00000000       0.00000000       4.88303030       0.00000000       0.00000000      -0.00714505
2
Properties=species:S:1:pos:R:3:forces:R:3 energy=-9.633440136913073 pbc="F F F"
Ar       0.00000000       0.00000000       0.00000000       0.00000000       0.00000000       0.00629092
Ar       0.00000000       0.00000000       4.94181818       0.00000000       0.00000000      -0.00629092
2
Properties=species:S:1:pos:R:3:forces:R:3 energy=-9.633095285244183 pbc="F F F"
Ar       0.00000000       0.00000000       0.00000000       0.00000000       0.00000000       0.00544676
Ar       0.00000000       0.00000000       5.00060606       0.00000000       0.00000000      -0.00544676
2
Properties=species:S:1:pos:R:3:forces:R:3 energy=-9.63279955496468 pbc="F F F"
Ar       0.00000000       0.00000000       0.00000000       0.00000000       0.00000000       0.00462717
Ar       0.00000000       0.00000000       5.05939394       0.00000000       0.00000000      -0.00462717
2
Properties=species:S:1:pos:R:3:forces:R:3 energy=-9.63255019632137 pbc="F F F"
Ar       0.00000000       0.00000000       0.00000000       0.00000000       0.00000000       0.00384517
Ar       0.00000000       0.00000000       5.11818182       0.00000000       0.00000000      -0.00384517
2
Properties=species:S:1:pos:R:3:forces:R:3 energy=-9.632346331469675 pbc="F F F"
Ar       0.00000000       0.00000000       0.00000000       0.00000000       0.00000000       0.00309104
Ar       0.00000000       0.00000000       5.17696970       0.00000000       0.00000000      -0.00309104
2
Properties=species:S:1:pos:R:3:forces:R:3 energy=-9.632187054054624 pbc="F F F"
Ar       0.00000000       0.00000000       0.00000000       0.00000000       0.00000000       0.00231622
Ar       0.00000000       0.00000000       5.23575758       0.00000000       0.00000000      -0.00231622
2
Properties=species:S:1:pos:R:3:forces:R:3 energy=-9.632076191939744 pbc="F F F"
Ar       0.00000000       0.00000000       0.00000000       0.00000000       0.00000000       0.00143769
Ar       0.00000000       0.00000000       5.29454545       0.00000000       0.00000000      -0.00143769
2
Properties=species:S:1:pos:R:3:forces:R:3 energy=-9.63202136570906 pbc="F F F"
Ar       0.00000000       0.00000000       0.00000000       0.00000000       0.00000000       0.00040696
Ar       0.00000000       0.00000000       5.35333333       0.00000000       0.00000000      -0.00040696
2
Properties=species:S:1:pos:R:3:forces:R:3 energy=-9.632028264938292 pbc="F F F"
Ar       0.00000000       0.00000000       0.00000000       0.00000000       0.00000000      -0.00060813
Ar       0.00000000       0.00000000       5.41212121       0.00000000       0.00000000       0.00060813
2
Properties=species:S:1:pos:R:3:forces:R:3 energy=-9.632082530857708 pbc="F F F"
Ar       0.00000000       0.00000000       0.00000000       0.00000000       0.00000000      -0.00111771
Ar       0.00000000       0.00000000       5.47090909       0.00000000       0.00000000       0.00111771
2
Properties=species:S:1:pos:R:3:forces:R:3 energy=-9.632144993722216 pbc="F F F"
Ar       0.00000000       0.00000000       0.00000000       0.00000000       0.00000000      -0.00088492
Ar       0.00000000       0.00000000       5.52969697       0.00000000       0.00000000       0.00088492
2
Properties=species:S:1:pos:R:3:forces:R:3 energy=-9.632183146736653 pbc="F F F"
Ar       0.00000000       0.00000000       0.00000000       0.00000000       0.00000000      -0.00042215
Ar       0.00000000       0.00000000       5.58848485       0.00000000       0.00000000       0.00042215
2
Properties=species:S:1:pos:R:3:forces:R:3 energy=-9.632196895955293 pbc="F F F"
Ar       0.00000000       0.00000000       0.00000000       0.00000000       0.00000000      -0.00005918
Ar       0.00000000       0.00000000       5.64727273       0.00000000       0.00000000       0.00005918
2
Properties=species:S:1:pos:R:3:forces:R:3 energy=-9.63218709180125 pbc="F F F"
Ar       0.00000000       0.00000000       0.00000000       0.00000000       0.00000000       0.00044050
Ar       0.00000000       0.00000000       5.70606061       0.00000000       0.00000000      -0.00044050
2
Properties=species:S:1:pos:R:3:forces:R:3 energy=-9.632137413907202 pbc="F F F"
Ar       0.00000000       0.00000000       0.00000000       0.00000000       0.00000000       0.00127404
Ar       0.00000000       0.00000000       5.76484848       0.00000000       0.00000000      -0.00127404
2
Properties=species:S:1:pos:R:3:forces:R:3 energy=-9.632042980849915 pbc="F F F"
Ar       0.00000000       0.00000000       0.00000000       0.00000000       0.00000000       0.00180994
Ar       0.00000000       0.00000000       5.82363636       0.00000000       0.00000000      -0.00180994
2
Properties=species:S:1:pos:R:3:forces:R:3 energy=-9.631940868619315 pbc="F F F"
Ar       0.00000000       0.00000000       0.00000000       0.00000000       0.00000000       0.00156598
Ar       0.00000000       0.00000000       5.88242424       0.00000000       0.00000000      -0.00156598
2
Properties=species:S:1:pos:R:3:forces:R:3 energy=-9.631865292380368 pbc="F F F"
Ar       0.00000000       0.00000000       0.00000000       0.00000000       0.00000000       0.00102960
Ar       0.00000000       0.00000000       5.94121212       0.00000000       0.00000000      -0.00102960
2
Properties=species:S:1:pos:R:3:forces:R:3 energy=-9.631814226387089 pbc="F F F"
Ar       0.00000000       0.00000000       0.00000000       0.00000000       0.00000000       0.00076630
Ar       0.00000000       0.00000000       6.00000000       0.00000000       0.00000000      -0.00076630
