2
Properties=species:S:1:pos:R:3:forces:R:3 energy=7373.405919520284 pbc="F F F"
As       0.00000000       0.00000000       0.00000000       0.00000000       0.00000000  -76056.35156250
As       0.00000000       0.00000000       0.18000000       0.00000000       0.00000000   76056.35156250
2
Properties=species:S:1:pos:R:3:forces:R:3 energy=4652.402501551534 pbc="F F F"
As       0.00000000       0.00000000       0.00000000       0.00000000       0.00000000  -26286.05273438
As       0.00000000       0.00000000       0.23878788       0.00000000       0.00000000   26286.05273438
2
Properties=species:S:1:pos:R:3:forces:R:3 energy=3689.9540152242016 pbc="F F F"
As       0.00000000       0.00000000       0.00000000       0.00000000       0.00000000   -8908.98925781
As       0.00000000       0.00000000       0.29757576       0.00000000       0.00000000    8908.98925781
2
Properties=species:S:1:pos:R:3:forces:R:3 energy=3439.2992300679516 pbc="F F F"
As       0.00000000       0.00000000       0.00000000       0.00000000       0.00000000    -553.49768066
As       0.00000000       0.00000000       0.35636364       0.00000000       0.00000000     553.49768066
2
Properties=species:S:1:pos:R:3:forces:R:3 energy=2634.7731070218683 pbc="F F F"
As       0.00000000       0.00000000       0.00000000       0.00000000       0.00000000   34528.69140625
As       0.00000000       0.00000000       0.41515152       0.00000000       0.00000000  -34528.69140625
2
Properties=species:S:1:pos:R:3:forces:R:3 energy=3240.057286710952 pbc="F F F"
As       0.00000000       0.00000000       0.00000000       0.00000000       0.00000000  -21758.81250000
As       0.00000000       0.00000000       0.47393939       0.00000000       0.00000000   21758.81250000
2
Properties=species:S:1:pos:R:3:forces:R:3 energy=1301.5279898399122 pbc="F F F"
As       0.00000000       0.00000000       0.00000000       0.00000000       0.00000000  -11992.17285156
As       0.00000000       0.00000000       0.53272727       0.00000000       0.00000000   11992.17285156
2
Properties=species:S:1:pos:R:3:forces:R:3 energy=170.55588291186208 pbc="F F F"
As       0.00000000       0.00000000       0.00000000       0.00000000       0.00000000  -16345.57617188
As       0.00000000       0.00000000       0.59151515       0.00000000       0.00000000   16345.57617188
2
Properties=species:S:1:pos:R:3:forces:R:3 energy=-208.38962794289225 pbc="F F F"
As       0.00000000       0.00000000       0.00000000       0.00000000       0.00000000    2090.75830078
As       0.00000000       0.00000000       0.65030303       0.00000000       0.00000000   -2090.75830078
2
Properties=species:S:1:pos:R:3:forces:R:3 energy=-80.94795464824455 pbc="F F F"
As       0.00000000       0.00000000       0.00000000       0.00000000       0.00000000    1981.46118164
As       0.00000000       0.00000000       0.70909091       0.00000000       0.00000000   -1981.46118164
2
Properties=species:S:1:pos:R:3:forces:R:3 energy=11.949033288969266 pbc="F F F"
As       0.00000000       0.00000000       0.00000000       0.00000000       0.00000000    1568.51953125
As       0.00000000       0.00000000       0.76787879       0.00000000       0.00000000   -1568.51953125
2
Properties=species:S:1:pos:R:3:forces:R:3 energy=70.42479473580562 pbc="F F F"
As       0.00000000       0.00000000       0.00000000       0.00000000       0.00000000     328.30374146
As       0.00000000       0.00000000       0.82666667       0.00000000       0.00000000    -328.30374146
2
Properties=species:S:1:pos:R:3:forces:R:3 energy=75.74243699602897 pbc="F F F"
As       0.00000000       0.00000000       0.00000000       0.00000000       0.00000000    -252.96403503
As       0.00000000       0.00000000       0.88545455       0.00000000       0.00000000     252.96403503
2
Properties=species:S:1:pos:R:3:forces:R:3 energy=63.25305336504347 pbc="F F F"
As       0.00000000       0.00000000       0.00000000       0.00000000       0.00000000     -70.32648468
As       0.00000000       0.00000000       0.94424242       0.00000000       0.00000000      70.32648468
2
Properties=species:S:1:pos:R:3:forces:R:3 energy=56.809015066588984 pbc="F F F"
As       0.00000000       0.00000000       0.00000000       0.00000000       0.00000000    -187.60943604
As       0.00000000       0.00000000       1.00303030       0.00000000       0.00000000     187.60943604
2
Properties=species:S:1:pos:R:3:forces:R:3 energy=43.920404348706384 pbc="F F F"
As       0.00000000       0.00000000       0.00000000       0.00000000       0.00000000    -220.98442078
As       0.00000000       0.00000000       1.06181818       0.00000000       0.00000000     220.98442078
2
Properties=species:S:1:pos:R:3:forces:R:3 energy=31.362188416878524 pbc="F F F"
As       0.00000000       0.00000000       0.00000000       0.00000000       0.00000000    -207.45622253
As       0.00000000       0.00000000       1.12060606       0.00000000       0.00000000     207.45622253
2
Properties=species:S:1:pos:R:3:forces:R:3 energy=19.909559540559094 pbc="F F F"
As       0.00000000       0.00000000       0.00000000       0.00000000       0.00000000    -179.18601990
As       0.00000000       0.00000000       1.17939394       0.00000000       0.00000000     179.18601990
2
Properties=species:S:1:pos:R:3:forces:R:3 energy=10.266291228578677 pbc="F F F"
As       0.00000000       0.00000000       0.00000000       0.00000000       0.00000000    -150.22572327
As       0.00000000       0.00000000       1.23818182       0.00000000       0.00000000     150.22572327
2
Properties=species:S:1:pos:R:3:forces:R:3 energy=2.1716966215947773 pbc="F F F"
As       0.00000000       0.00000000       0.00000000       0.00000000       0.00000000    -125.01190186
As       0.00000000       0.00000000       1.29696970       0.00000000       0.00000000     125.01190186
2
Properties=species:S:1:pos:R:3:forces:R:3 energy=-4.4243760902966205 pbc="F F F"
As       0.00000000       0.00000000       0.00000000       0.00000000       0.00000000     -99.84823608
As       0.00000000       0.00000000       1.35575758       0.00000000       0.00000000      99.84823608
2
Properties=species:S:1:pos:R:3:forces:R:3 energy=-9.66320610866964 pbc="F F F"
As       0.00000000       0.00000000       0.00000000       0.00000000       0.00000000     -79.23345947
As       0.00000000       0.00000000       1.41454545       0.00000000       0.00000000      79.23345947
2
Properties=species:S:1:pos:R:3:forces:R:3 energy=-13.824105548306408 pbc="F F F"
As       0.00000000       0.00000000       0.00000000       0.00000000       0.00000000     -62.91203690
As       0.00000000       0.00000000       1.47333333       0.00000000       0.00000000      62.91203690
2
Properties=species:S:1:pos:R:3:forces:R:3 energy=-17.122084074779313 pbc="F F F"
As       0.00000000       0.00000000       0.00000000       0.00000000       0.00000000     -49.79211426
As       0.00000000       0.00000000       1.53212121       0.00000000       0.00000000      49.79211426
2
Properties=species:S:1:pos:R:3:forces:R:3 energy=-19.73845994028315 pbc="F F F"
As       0.00000000       0.00000000       0.00000000       0.00000000       0.00000000     -39.71663284
As       0.00000000       0.00000000       1.59090909       0.00000000       0.00000000      39.71663284
2
Properties=species:S:1:pos:R:3:forces:R:3 energy=-21.842533198821034 pbc="F F F"
As       0.00000000       0.00000000       0.00000000       0.00000000       0.00000000     -32.20499420
As       0.00000000       0.00000000       1.64969697       0.00000000       0.00000000      32.20499420
2
Properties=species:S:1:pos:R:3:forces:R:3 energy=-23.553768688230598 pbc="F F F"
As       0.00000000       0.00000000       0.00000000       0.00000000       0.00000000     -26.17615128
As       0.00000000       0.00000000       1.70848485       0.00000000       0.00000000      26.17615128
2
Properties=species:S:1:pos:R:3:forces:R:3 energy=-24.93347618653501 pbc="F F F"
As       0.00000000       0.00000000       0.00000000       0.00000000       0.00000000     -20.84260941
As       0.00000000       0.00000000       1.76727273       0.00000000       0.00000000      20.84260941
2
Properties=species:S:1:pos:R:3:forces:R:3 energy=-26.01261763657338 pbc="F F F"
As       0.00000000       0.00000000       0.00000000       0.00000000       0.00000000     -15.94243145
As       0.00000000       0.00000000       1.82606061       0.00000000       0.00000000      15.94243145
2
Properties=species:S:1:pos:R:3:forces:R:3 energy=-26.81776427175969 pbc="F F F"
As       0.00000000       0.00000000       0.00000000       0.00000000       0.00000000     -11.54637909
As       0.00000000       0.00000000       1.88484848       0.00000000       0.00000000      11.54637909
2
Properties=species:S:1:pos:R:3:forces:R:3 energy=-27.382979375098493 pbc="F F F"
As       0.00000000       0.00000000       0.00000000       0.00000000       0.00000000      -7.79917288
As       0.00000000       0.00000000       1.94363636       0.00000000       0.00000000       7.79917288
2
Properties=species:S:1:pos:R:3:forces:R:3 energy=-27.748342008766144 pbc="F F F"
As       0.00000000       0.00000000       0.00000000       0.00000000       0.00000000      -4.73931503
As       0.00000000       0.00000000       2.00242424       0.00000000       0.00000000       4.73931503
2
Properties=species:S:1:pos:R:3:forces:R:3 energy=-27.95140590455721 pbc="F F F"
As       0.00000000       0.00000000       0.00000000       0.00000000       0.00000000      -2.24877477
As       0.00000000       0.00000000       2.06121212       0.00000000       0.00000000       2.24877477
2
Properties=species:S:1:pos:R:3:forces:R:3 energy=-28.02015752481254 pbc="F F F"
As       0.00000000       0.00000000       0.00000000       0.00000000       0.00000000      -0.13638422
As       0.00000000       0.00000000       2.12000000       0.00000000       0.00000000       0.13638422
2
Properties=species:S:1:pos:R:3:forces:R:3 energy=-27.97125940937563 pbc="F F F"
As       0.00000000       0.00000000       0.00000000       0.00000000       0.00000000       1.77517366
As       0.00000000       0.00000000       2.17878788       0.00000000       0.00000000      -1.77517366
2
Properties=species:S:1:pos:R:3:forces:R:3 energy=-27.815060768571687 pbc="F F F"
As       0.00000000       0.00000000       0.00000000       0.00000000       0.00000000       3.49210572
As       0.00000000       0.00000000       2.23757576       0.00000000       0.00000000      -3.49210572
2
Properties=species:S:1:pos:R:3:forces:R:3 energy=-27.569235050482835 pbc="F F F"
As       0.00000000       0.00000000       0.00000000       0.00000000       0.00000000       4.77099419
As       0.00000000       0.00000000       2.29636364       0.00000000       0.00000000      -4.77099419
2
Properties=species:S:1:pos:R:3:forces:R:3 energy=-27.26820223289881 pbc="F F F"
As       0.00000000       0.00000000       0.00000000       0.00000000       0.00000000       5.34068680
As       0.00000000       0.00000000       2.35515152       0.00000000       0.00000000      -5.34068680
2
Properties=species:S:1:pos:R:3:forces:R:3 energy=-26.955638640685272 pbc="F F F"
As       0.00000000       0.00000000       0.00000000       0.00000000       0.00000000       5.18796492
As       0.00000000       0.00000000       2.41393939       0.00000000       0.00000000      -5.18796492
2
Properties=species:S:1:pos:R:3:forces:R:3 energy=-26.66789644964998 pbc="F F F"
As       0.00000000       0.00000000       0.00000000       0.00000000       0.00000000       4.54002190
As       0.00000000       0.00000000       2.47272727       0.00000000       0.00000000      -4.54002190
2
Properties=species:S:1:pos:R:3:forces:R:3 energy=-26.42679765054809 pbc="F F F"
As       0.00000000       0.00000000       0.00000000       0.00000000       0.00000000       3.64130402
As       0.00000000       0.00000000       2.53151515       0.00000000       0.00000000      -3.64130402
2
Properties=species:S:1:pos:R:3:forces:R:3 energy=-26.23896460376615 pbc="F F F"
As       0.00000000       0.00000000       0.00000000       0.00000000       0.00000000       2.78599191
As       0.00000000       0.00000000       2.59030303       0.00000000       0.00000000      -2.78599191
2
Properties=species:S:1:pos:R:3:forces:R:3 energy=-26.09196915470151 pbc="F F F"
As       0.00000000       0.00000000       0.00000000       0.00000000       0.00000000       2.29282331
As       0.00000000       0.00000000       2.64909091       0.00000000       0.00000000      -2.29282331
2
Properties=species:S:1:pos:R:3:forces:R:3 energy=-25.959993707860942 pbc="F F F"
As       0.00000000       0.00000000       0.00000000       0.00000000       0.00000000       2.27122760
As       0.00000000       0.00000000       2.70787879       0.00000000       0.00000000      -2.27122760
2
Properties=species:S:1:pos:R:3:forces:R:3 energy=-25.817724614855432 pbc="F F F"
As       0.00000000       0.00000000       0.00000000       0.00000000       0.00000000       2.61434317
As       0.00000000       0.00000000       2.76666667       0.00000000       0.00000000      -2.61434317
2
Properties=species:S:1:pos:R:3:forces:R:3 energy=-25.649442976538907 pbc="F F F"
As       0.00000000       0.00000000       0.00000000       0.00000000       0.00000000       3.11791277
As       0.00000000       0.00000000       2.82545455       0.00000000       0.00000000      -3.11791277
2
Properties=species:S:1:pos:R:3:forces:R:3 energy=-25.452553713944212 pbc="F F F"
As       0.00000000       0.00000000       0.00000000       0.00000000       0.00000000       3.55123544
As       0.00000000       0.00000000       2.88424242       0.00000000       0.00000000      -3.55123544
2
Properties=species:S:1:pos:R:3:forces:R:3 energy=-25.23655723335341 pbc="F F F"
As       0.00000000       0.00000000       0.00000000       0.00000000       0.00000000       3.75301695
As       0.00000000       0.00000000       2.94303030       0.00000000       0.00000000      -3.75301695
2
Properties=species:S:1:pos:R:3:forces:R:3 energy=-25.01606430173138 pbc="F F F"
As       0.00000000       0.00000000       0.00000000       0.00000000       0.00000000       3.71485376
As       0.00000000       0.00000000       3.00181818       0.00000000       0.00000000      -3.71485376
2
Properties=species:S:1:pos:R:3:forces:R:3 energy=-24.80267940223781 pbc="F F F"
As       0.00000000       0.00000000       0.00000000       0.00000000       0.00000000       3.52766991
As       0.00000000       0.00000000       3.06060606       0.00000000       0.00000000      -3.52766991
2
Properties=species:S:1:pos:R:3:forces:R:3 energy=-24.60274928355625 pbc="F F F"
As       0.00000000       0.00000000       0.00000000       0.00000000       0.00000000       3.26431036
As       0.00000000       0.00000000       3.11939394       0.00000000       0.00000000      -3.26431036
2
Properties=species:S:1:pos:R:3:forces:R:3 energy=-24.41992420550325 pbc="F F F"
As       0.00000000       0.00000000       0.00000000       0.00000000       0.00000000       2.94711041
As       0.00000000       0.00000000       3.17818182       0.00000000       0.00000000      -2.94711041
2
Properties=species:S:1:pos:R:3:forces:R:3 energy=-24.25710400388274 pbc="F F F"
As       0.00000000       0.00000000       0.00000000       0.00000000       0.00000000       2.58648849
As       0.00000000       0.00000000       3.23696970       0.00000000       0.00000000      -2.58648849
2
Properties=species:S:1:pos:R:3:forces:R:3 energy=-24.116198019095705 pbc="F F F"
As       0.00000000       0.00000000       0.00000000       0.00000000       0.00000000       2.20674872
As       0.00000000       0.00000000       3.29575758       0.00000000       0.00000000      -2.20674872
2
Properties=species:S:1:pos:R:3:forces:R:3 energy=-23.997388679641467 pbc="F F F"
As       0.00000000       0.00000000       0.00000000       0.00000000       0.00000000       1.83980024
As       0.00000000       0.00000000       3.35454545       0.00000000       0.00000000      -1.83980024
2
Properties=species:S:1:pos:R:3:forces:R:3 energy=-23.899118205641887 pbc="F F F"
As       0.00000000       0.00000000       0.00000000       0.00000000       0.00000000       1.51131332
As       0.00000000       0.00000000       3.41333333       0.00000000       0.00000000      -1.51131332
2
Properties=species:S:1:pos:R:3:forces:R:3 energy=-23.818668190191914 pbc="F F F"
As       0.00000000       0.00000000       0.00000000       0.00000000       0.00000000       1.23475397
As       0.00000000       0.00000000       3.47212121       0.00000000       0.00000000      -1.23475397
2
Properties=species:S:1:pos:R:3:forces:R:3 energy=-23.752878946186648 pbc="F F F"
As       0.00000000       0.00000000       0.00000000       0.00000000       0.00000000       1.01218665
As       0.00000000       0.00000000       3.53090909       0.00000000       0.00000000      -1.01218665
2
Properties=species:S:1:pos:R:3:forces:R:3 energy=-23.69872005698832 pbc="F F F"
As       0.00000000       0.00000000       0.00000000       0.00000000       0.00000000       0.83743823
As       0.00000000       0.00000000       3.58969697       0.00000000       0.00000000      -0.83743823
2
Properties=species:S:1:pos:R:3:forces:R:3 energy=-23.653685378951106 pbc="F F F"
As       0.00000000       0.00000000       0.00000000       0.00000000       0.00000000       0.69992268
As       0.00000000       0.00000000       3.64848485       0.00000000       0.00000000      -0.69992268
2
Properties=species:S:1:pos:R:3:forces:R:3 energy=-23.615922867841025 pbc="F F F"
As       0.00000000       0.00000000       0.00000000       0.00000000       0.00000000       0.58821464
As       0.00000000       0.00000000       3.70727273       0.00000000       0.00000000      -0.58821464
2
Properties=species:S:1:pos:R:3:forces:R:3 energy=-23.584207896545955 pbc="F F F"
As       0.00000000       0.00000000       0.00000000       0.00000000       0.00000000       0.49284041
As       0.00000000       0.00000000       3.76606061       0.00000000       0.00000000      -0.49284041
2
Properties=species:S:1:pos:R:3:forces:R:3 energy=-23.557779333175 pbc="F F F"
As       0.00000000       0.00000000       0.00000000       0.00000000       0.00000000       0.40760297
As       0.00000000       0.00000000       3.82484848       0.00000000       0.00000000      -0.40760297
2
Properties=species:S:1:pos:R:3:forces:R:3 energy=-23.53614493764499 pbc="F F F"
As       0.00000000       0.00000000       0.00000000       0.00000000       0.00000000       0.32952958
As       0.00000000       0.00000000       3.88363636       0.00000000       0.00000000      -0.32952958
2
Properties=species:S:1:pos:R:3:forces:R:3 energy=-23.518907858687193 pbc="F F F"
As       0.00000000       0.00000000       0.00000000       0.00000000       0.00000000       0.25795636
As       0.00000000       0.00000000       3.94242424       0.00000000       0.00000000      -0.25795636
2
Properties=species:S:1:pos:R:3:forces:R:3 energy=-23.505680792863412 pbc="F F F"
As       0.00000000       0.00000000       0.00000000       0.00000000       0.00000000       0.19330499
As       0.00000000       0.00000000       4.00121212       0.00000000       0.00000000      -0.19330499
2
Properties=species:S:1:pos:R:3:forces:R:3 energy=-23.496034503575938 pbc="F F F"
As       0.00000000       0.00000000       0.00000000       0.00000000       0.00000000       0.13606502
As       0.00000000       0.00000000       4.06000000       0.00000000       0.00000000      -0.13606502
2
Properties=species:S:1:pos:R:3:forces:R:3 energy=-23.489537876972733 pbc="F F F"
As       0.00000000       0.00000000       0.00000000       0.00000000       0.00000000       0.08619019
As       0.00000000       0.00000000       4.11878788       0.00000000       0.00000000      -0.08619019
2
Properties=species:S:1:pos:R:3:forces:R:3 energy=-23.48577128605916 pbc="F F F"
As       0.00000000       0.00000000       0.00000000       0.00000000       0.00000000       0.04292884
As       0.00000000       0.00000000       4.17757576       0.00000000       0.00000000      -0.04292884
2
Properties=species:S:1:pos:R:3:forces:R:3 energy=-23.484383807197172 pbc="F F F"
As       0.00000000       0.00000000       0.00000000       0.00000000       0.00000000       0.00502596
As       0.00000000       0.00000000       4.23636364       0.00000000       0.00000000      -0.00502596
2
Properties=species:S:1:pos:R:3:forces:R:3 energy=-23.485102771895658 pbc="F F F"
As       0.00000000       0.00000000       0.00000000       0.00000000       0.00000000      -0.02892310
As       0.00000000       0.00000000       4.29515152       0.00000000       0.00000000       0.02892310
2
Properties=species:S:1:pos:R:3:forces:R:3 energy=-23.48772994815338 pbc="F F F"
As       0.00000000       0.00000000       0.00000000       0.00000000       0.00000000      -0.06006761
As       0.00000000       0.00000000       4.35393939       0.00000000       0.00000000       0.06006761
2
Properties=species:S:1:pos:R:3:forces:R:3 energy=-23.492122467764606 pbc="F F F"
As       0.00000000       0.00000000       0.00000000       0.00000000       0.00000000      -0.08903200
As       0.00000000       0.00000000       4.41272727       0.00000000       0.00000000       0.08903200
2
Properties=species:S:1:pos:R:3:forces:R:3 energy=-23.49815469122579 pbc="F F F"
As       0.00000000       0.00000000       0.00000000       0.00000000       0.00000000      -0.11578721
As       0.00000000       0.00000000       4.47151515       0.00000000       0.00000000       0.11578721
2
Properties=species:S:1:pos:R:3:forces:R:3 energy=-23.50568195464829 pbc="F F F"
As       0.00000000       0.00000000       0.00000000       0.00000000       0.00000000      -0.13971457
As       0.00000000       0.00000000       4.53030303       0.00000000       0.00000000       0.13971457
2
Properties=species:S:1:pos:R:3:forces:R:3 energy=-23.51450815987879 pbc="F F F"
As       0.00000000       0.00000000       0.00000000       0.00000000       0.00000000      -0.15979724
As       0.00000000       0.00000000       4.58909091       0.00000000       0.00000000       0.15979724
2
Properties=species:S:1:pos:R:3:forces:R:3 energy=-23.524372409595607 pbc="F F F"
As       0.00000000       0.00000000       0.00000000       0.00000000       0.00000000      -0.17491497
As       0.00000000       0.00000000       4.64787879       0.00000000       0.00000000       0.17491497
2
Properties=species:S:1:pos:R:3:forces:R:3 energy=-23.534958545635774 pbc="F F F"
As       0.00000000       0.00000000       0.00000000       0.00000000       0.00000000      -0.18417153
As       0.00000000       0.00000000       4.70666667       0.00000000       0.00000000       0.18417153
2
Properties=species:S:1:pos:R:3:forces:R:3 energy=-23.54590467940255 pbc="F F F"
As       0.00000000       0.00000000       0.00000000       0.00000000       0.00000000      -0.18720192
As       0.00000000       0.00000000       4.76545455       0.00000000       0.00000000       0.18720192
2
Properties=species:S:1:pos:R:3:forces:R:3 energy=-23.556854691862437 pbc="F F F"
As       0.00000000       0.00000000       0.00000000       0.00000000       0.00000000      -0.18438785
As       0.00000000       0.00000000       4.82424242       0.00000000       0.00000000       0.18438785
2
Properties=species:S:1:pos:R:3:forces:R:3 energy=-23.567492555525128 pbc="F F F"
As       0.00000000       0.00000000       0.00000000       0.00000000       0.00000000      -0.17691192
As       0.00000000       0.00000000       4.88303030       0.00000000       0.00000000       0.17691192
2
Properties=species:S:1:pos:R:3:forces:R:3 energy=-23.577597631714752 pbc="F F F"
As       0.00000000       0.00000000       0.00000000       0.00000000       0.00000000      -0.16659476
As       0.00000000       0.00000000       4.94181818       0.00000000       0.00000000       0.16659476
2
Properties=species:S:1:pos:R:3:forces:R:3 energy=-23.5870656577405 pbc="F F F"
As       0.00000000       0.00000000       0.00000000       0.00000000       0.00000000      -0.15555955
As       0.00000000       0.00000000       5.00060606       0.00000000       0.00000000       0.15555955
2
Properties=species:S:1:pos:R:3:forces:R:3 energy=-23.595912537835186 pbc="F F F"
As       0.00000000       0.00000000       0.00000000       0.00000000       0.00000000      -0.14570558
As       0.00000000       0.00000000       5.05939394       0.00000000       0.00000000       0.14570558
2
Properties=species:S:1:pos:R:3:forces:R:3 energy=-23.604241934859594 pbc="F F F"
As       0.00000000       0.00000000       0.00000000       0.00000000       0.00000000      -0.13809384
As       0.00000000       0.00000000       5.11818182       0.00000000       0.00000000       0.13809384
2
Properties=species:S:1:pos:R:3:forces:R:3 energy=-23.61218610012522 pbc="F F F"
As       0.00000000       0.00000000       0.00000000       0.00000000       0.00000000      -0.13234793
As       0.00000000       0.00000000       5.17696970       0.00000000       0.00000000       0.13234793
2
Properties=species:S:1:pos:R:3:forces:R:3 energy=-23.619797174717064 pbc="F F F"
As       0.00000000       0.00000000       0.00000000       0.00000000       0.00000000      -0.12628204
As       0.00000000       0.00000000       5.23575758       0.00000000       0.00000000       0.12628204
2
Properties=species:S:1:pos:R:3:forces:R:3 energy=-23.6269575155975 pbc="F F F"
As       0.00000000       0.00000000       0.00000000       0.00000000       0.00000000      -0.11632711
As       0.00000000       0.00000000       5.29454545       0.00000000       0.00000000       0.11632711
2
Properties=species:S:1:pos:R:3:forces:R:3 energy=-23.63335109448427 pbc="F F F"
As       0.00000000       0.00000000       0.00000000       0.00000000       0.00000000      -0.10032703
As       0.00000000       0.00000000       5.35333333       0.00000000       0.00000000       0.10032703
2
Properties=species:S:1:pos:R:3:forces:R:3 energy=-23.638741954119798 pbc="F F F"
As       0.00000000       0.00000000       0.00000000       0.00000000       0.00000000      -0.08424500
As       0.00000000       0.00000000       5.41212121       0.00000000       0.00000000       0.08424500
2
Properties=species:S:1:pos:R:3:forces:R:3 energy=-23.64355976311355 pbc="F F F"
As       0.00000000       0.00000000       0.00000000       0.00000000       0.00000000      -0.08302570
As       0.00000000       0.00000000       5.47090909       0.00000000       0.00000000       0.08302570
2
Properties=species:S:1:pos:R:3:forces:R:3 energy=-23.648745313971133 pbc="F F F"
As       0.00000000       0.00000000       0.00000000       0.00000000       0.00000000      -0.09274162
As       0.00000000       0.00000000       5.52969697       0.00000000       0.00000000       0.09274162
2
Properties=species:S:1:pos:R:3:forces:R:3 energy=-23.65408540417406 pbc="F F F"
As       0.00000000       0.00000000       0.00000000       0.00000000       0.00000000      -0.08477817
As       0.00000000       0.00000000       5.58848485       0.00000000       0.00000000       0.08477817
2
Properties=species:S:1:pos:R:3:forces:R:3 energy=-23.65840930100849 pbc="F F F"
As       0.00000000       0.00000000       0.00000000       0.00000000       0.00000000      -0.06241411
As       0.00000000       0.00000000       5.64727273       0.00000000       0.00000000       0.06241411
2
Properties=species:S:1:pos:R:3:forces:R:3 energy=-23.661719232565048 pbc="F F F"
As       0.00000000       0.00000000       0.00000000       0.00000000       0.00000000      -0.05436277
As       0.00000000       0.00000000       5.70606061       0.00000000       0.00000000       0.05436277
2
Properties=species:S:1:pos:R:3:forces:R:3 energy=-23.665247621661056 pbc="F F F"
As       0.00000000       0.00000000       0.00000000       0.00000000       0.00000000      -0.06674039
As       0.00000000       0.00000000       5.76484848       0.00000000       0.00000000       0.06674039
2
Properties=species:S:1:pos:R:3:forces:R:3 energy=-23.669294152490924 pbc="F F F"
As       0.00000000       0.00000000       0.00000000       0.00000000       0.00000000      -0.06604379
As       0.00000000       0.00000000       5.82363636       0.00000000       0.00000000       0.06604379
2
Properties=species:S:1:pos:R:3:forces:R:3 energy=-23.672445651572097 pbc="F F F"
As       0.00000000       0.00000000       0.00000000       0.00000000       0.00000000      -0.03878679
As       0.00000000       0.00000000       5.88242424       0.00000000       0.00000000       0.03878679
2
Properties=species:S:1:pos:R:3:forces:R:3 energy=-23.673809619920544 pbc="F F F"
As       0.00000000       0.00000000       0.00000000       0.00000000       0.00000000      -0.00914033
As       0.00000000       0.00000000       5.94121212       0.00000000       0.00000000       0.00914033
2
Properties=species:S:1:pos:R:3:forces:R:3 energy=-23.673885873952948 pbc="F F F"
As       0.00000000       0.00000000       0.00000000       0.00000000       0.00000000       0.00261428
As       0.00000000       0.00000000       6.00000000       0.00000000       0.00000000      -0.00261428
