2
Properties=species:S:1:pos:R:3:forces:R:3 energy=5829258.474398108 pbc="F F F"
Ba       0.00000000       0.00000000       0.00000000       0.00000000       0.00000000 -451517.46875000
Ba       0.00000000       0.00000000       0.18000000       0.00000000       0.00000000  451517.46875000
2
Properties=species:S:1:pos:R:3:forces:R:3 energy=5794164.974398108 pbc="F F F"
Ba       0.00000000       0.00000000       0.00000000       0.00000000       0.00000000 -825197.50000000
Ba       0.00000000       0.00000000       0.23878788       0.00000000       0.00000000  825197.50000000
2
Properties=species:S:1:pos:R:3:forces:R:3 energy=5722647.474398108 pbc="F F F"
Ba       0.00000000       0.00000000       0.00000000       0.00000000       0.00000000 -1690756.12500000
Ba       0.00000000       0.00000000       0.29757576       0.00000000       0.00000000 1690756.12500000
2
Properties=species:S:1:pos:R:3:forces:R:3 energy=5584245.474398108 pbc="F F F"
Ba       0.00000000       0.00000000       0.00000000       0.00000000       0.00000000 -3118588.75000000
Ba       0.00000000       0.00000000       0.35636364       0.00000000       0.00000000 3118588.75000000
2
Properties=species:S:1:pos:R:3:forces:R:3 energy=5343888.474398108 pbc="F F F"
Ba       0.00000000       0.00000000       0.00000000       0.00000000       0.00000000 -5160620.50000000
Ba       0.00000000       0.00000000       0.41515152       0.00000000       0.00000000 5160620.50000000
2
Properties=species:S:1:pos:R:3:forces:R:3 energy=4966702.974398108 pbc="F F F"
Ba       0.00000000       0.00000000       0.00000000       0.00000000       0.00000000 -7747039.00000000
Ba       0.00000000       0.00000000       0.47393939       0.00000000       0.00000000 7747039.00000000
2
Properties=species:S:1:pos:R:3:forces:R:3 energy=4427677.474398108 pbc="F F F"
Ba       0.00000000       0.00000000       0.00000000       0.00000000       0.00000000 -10597775.00000000
Ba       0.00000000       0.00000000       0.53272727       0.00000000       0.00000000 10597775.00000000
2
Properties=species:S:1:pos:R:3:forces:R:3 energy=3725924.4743981096 pbc="F F F"
Ba       0.00000000       0.00000000       0.00000000       0.00000000       0.00000000 -13171547.00000000
Ba       0.00000000       0.00000000       0.59151515       0.00000000       0.00000000 13171547.00000000
2
Properties=species:S:1:pos:R:3:forces:R:3 energy=2895555.2243981115 pbc="F F F"
Ba       0.00000000       0.00000000       0.00000000       0.00000000       0.00000000 -14809558.00000000
Ba       0.00000000       0.00000000       0.65030303       0.00000000       0.00000000 14809558.00000000
2
Properties=species:S:1:pos:R:3:forces:R:3 energy=2021934.0993981145 pbc="F F F"
Ba       0.00000000       0.00000000       0.00000000       0.00000000       0.00000000 -14574479.00000000
Ba       0.00000000       0.00000000       0.70909091       0.00000000       0.00000000 14574479.00000000
2
Properties=species:S:1:pos:R:3:forces:R:3 energy=1226114.0993981191 pbc="F F F"
Ba       0.00000000       0.00000000       0.00000000       0.00000000       0.00000000 -12272349.00000000
Ba       0.00000000       0.00000000       0.76787879       0.00000000       0.00000000 12272349.00000000
2
Properties=species:S:1:pos:R:3:forces:R:3 energy=609733.0368981271 pbc="F F F"
Ba       0.00000000       0.00000000       0.00000000       0.00000000       0.00000000 -8532609.00000000
Ba       0.00000000       0.00000000       0.82666667       0.00000000       0.00000000 8532609.00000000
2
Properties=species:S:1:pos:R:3:forces:R:3 energy=228002.47439813658 pbc="F F F"
Ba       0.00000000       0.00000000       0.00000000       0.00000000       0.00000000 -4535476.00000000
Ba       0.00000000       0.00000000       0.88545455       0.00000000       0.00000000 4535476.00000000
2
Properties=species:S:1:pos:R:3:forces:R:3 energy=54665.59939815083 pbc="F F F"
Ba       0.00000000       0.00000000       0.00000000       0.00000000       0.00000000 -1621473.87500000
Ba       0.00000000       0.00000000       0.94424242       0.00000000       0.00000000 1621473.87500000
2
Properties=species:S:1:pos:R:3:forces:R:3 energy=5657.708773168251 pbc="F F F"
Ba       0.00000000       0.00000000       0.00000000       0.00000000       0.00000000 -291209.43750000
Ba       0.00000000       0.00000000       1.00303030       0.00000000       0.00000000  291209.43750000
2
Properties=species:S:1:pos:R:3:forces:R:3 energy=46.53718429588929 pbc="F F F"
Ba       0.00000000       0.00000000       0.00000000       0.00000000       0.00000000    -241.65107727
Ba       0.00000000       0.00000000       1.06181818       0.00000000       0.00000000     241.65107727
2
Properties=species:S:1:pos:R:3:forces:R:3 energy=29.950499150071273 pbc="F F F"
Ba       0.00000000       0.00000000       0.00000000       0.00000000       0.00000000    -592.47088623
Ba       0.00000000       0.00000000       1.12060606       0.00000000       0.00000000     592.47088623
2
Properties=species:S:1:pos:R:3:forces:R:3 energy=16.64037193612 pbc="F F F"
Ba       0.00000000       0.00000000       0.00000000       0.00000000       0.00000000    -161.23661804
Ba       0.00000000       0.00000000       1.17939394       0.00000000       0.00000000     161.23661804
2
Properties=species:S:1:pos:R:3:forces:R:3 energy=6.860666942365556 pbc="F F F"
Ba       0.00000000       0.00000000       0.00000000       0.00000000       0.00000000    -166.09930420
Ba       0.00000000       0.00000000       1.23818182       0.00000000       0.00000000     166.09930420
2
Properties=species:S:1:pos:R:3:forces:R:3 energy=-2.583329415801805 pbc="F F F"
Ba       0.00000000       0.00000000       0.00000000       0.00000000       0.00000000    -152.17402649
Ba       0.00000000       0.00000000       1.29696970       0.00000000       0.00000000     152.17402649
2
Properties=species:S:1:pos:R:3:forces:R:3 energy=-10.619332436727932 pbc="F F F"
Ba       0.00000000       0.00000000       0.00000000       0.00000000       0.00000000    -118.40261078
Ba       0.00000000       0.00000000       1.35575758       0.00000000       0.00000000     118.40261078
2
Properties=species:S:1:pos:R:3:forces:R:3 energy=-16.44698430180931 pbc="F F F"
Ba       0.00000000       0.00000000       0.00000000       0.00000000       0.00000000     -81.80101776
Ba       0.00000000       0.00000000       1.41454545       0.00000000       0.00000000      81.80101776
2
Properties=species:S:1:pos:R:3:forces:R:3 energy=-20.587929600163267 pbc="F F F"
Ba       0.00000000       0.00000000       0.00000000       0.00000000       0.00000000     -61.93301010
Ba       0.00000000       0.00000000       1.47333333       0.00000000       0.00000000      61.93301010
2
Properties=species:S:1:pos:R:3:forces:R:3 energy=-23.95811337380302 pbc="F F F"
Ba       0.00000000       0.00000000       0.00000000       0.00000000       0.00000000     -53.87119675
Ba       0.00000000       0.00000000       1.53212121       0.00000000       0.00000000      53.87119675
2
Properties=species:S:1:pos:R:3:forces:R:3 energy=-27.007996055104616 pbc="F F F"
Ba       0.00000000       0.00000000       0.00000000       0.00000000       0.00000000     -50.38359833
Ba       0.00000000       0.00000000       1.59090909       0.00000000       0.00000000      50.38359833
2
Properties=species:S:1:pos:R:3:forces:R:3 energy=-29.921280105020568 pbc="F F F"
Ba       0.00000000       0.00000000       0.00000000       0.00000000       0.00000000     -48.87575150
Ba       0.00000000       0.00000000       1.64969697       0.00000000       0.00000000      48.87575150
2
Properties=species:S:1:pos:R:3:forces:R:3 energy=-32.746074573364574 pbc="F F F"
Ba       0.00000000       0.00000000       0.00000000       0.00000000       0.00000000     -46.93910599
Ba       0.00000000       0.00000000       1.70848485       0.00000000       0.00000000      46.93910599
2
Properties=species:S:1:pos:R:3:forces:R:3 energy=-35.39122726263888 pbc="F F F"
Ba       0.00000000       0.00000000       0.00000000       0.00000000       0.00000000     -42.61148071
Ba       0.00000000       0.00000000       1.76727273       0.00000000       0.00000000      42.61148071
2
Properties=species:S:1:pos:R:3:forces:R:3 energy=-37.72265154970157 pbc="F F F"
Ba       0.00000000       0.00000000       0.00000000       0.00000000       0.00000000     -36.61403656
Ba       0.00000000       0.00000000       1.82606061       0.00000000       0.00000000      36.61403656
2
Properties=species:S:1:pos:R:3:forces:R:3 energy=-39.691645186642845 pbc="F F F"
Ba       0.00000000       0.00000000       0.00000000       0.00000000       0.00000000     -30.30122948
Ba       0.00000000       0.00000000       1.88484848       0.00000000       0.00000000      30.30122948
2
Properties=species:S:1:pos:R:3:forces:R:3 energy=-41.28471176661738 pbc="F F F"
Ba       0.00000000       0.00000000       0.00000000       0.00000000       0.00000000     -24.04933929
Ba       0.00000000       0.00000000       1.94363636       0.00000000       0.00000000      24.04933929
2
Properties=species:S:1:pos:R:3:forces:R:3 energy=-42.55465431333683 pbc="F F F"
Ba       0.00000000       0.00000000       0.00000000       0.00000000       0.00000000     -19.53533745
Ba       0.00000000       0.00000000       2.00242424       0.00000000       0.00000000      19.53533745
2
Properties=species:S:1:pos:R:3:forces:R:3 energy=-43.62507282023345 pbc="F F F"
Ba       0.00000000       0.00000000       0.00000000       0.00000000       0.00000000     -17.20223236
Ba       0.00000000       0.00000000       2.06121212       0.00000000       0.00000000      17.20223236
2
Properties=species:S:1:pos:R:3:forces:R:3 energy=-44.606089952132166 pbc="F F F"
Ba       0.00000000       0.00000000       0.00000000       0.00000000       0.00000000     -16.33774757
Ba       0.00000000       0.00000000       2.12000000       0.00000000       0.00000000      16.33774757
2
Properties=species:S:1:pos:R:3:forces:R:3 energy=-45.55647492243592 pbc="F F F"
Ba       0.00000000       0.00000000       0.00000000       0.00000000       0.00000000     -16.01758957
Ba       0.00000000       0.00000000       2.17878788       0.00000000       0.00000000      16.01758957
2
Properties=species:S:1:pos:R:3:forces:R:3 energy=-46.48659987083518 pbc="F F F"
Ba       0.00000000       0.00000000       0.00000000       0.00000000       0.00000000     -15.57155800
Ba       0.00000000       0.00000000       2.23757576       0.00000000       0.00000000      15.57155800
2
Properties=species:S:1:pos:R:3:forces:R:3 energy=-47.37975258960232 pbc="F F F"
Ba       0.00000000       0.00000000       0.00000000       0.00000000       0.00000000     -14.75014400
Ba       0.00000000       0.00000000       2.29636364       0.00000000       0.00000000      14.75014400
2
Properties=species:S:1:pos:R:3:forces:R:3 energy=-48.21436475822274 pbc="F F F"
Ba       0.00000000       0.00000000       0.00000000       0.00000000       0.00000000     -13.59935188
Ba       0.00000000       0.00000000       2.35515152       0.00000000       0.00000000      13.59935188
2
Properties=species:S:1:pos:R:3:forces:R:3 energy=-48.97468166590204 pbc="F F F"
Ba       0.00000000       0.00000000       0.00000000       0.00000000       0.00000000     -12.24231052
Ba       0.00000000       0.00000000       2.41393939       0.00000000       0.00000000      12.24231052
2
Properties=species:S:1:pos:R:3:forces:R:3 energy=-49.65182646933749 pbc="F F F"
Ba       0.00000000       0.00000000       0.00000000       0.00000000       0.00000000     -10.78546619
Ba       0.00000000       0.00000000       2.47272727       0.00000000       0.00000000      10.78546619
2
Properties=species:S:1:pos:R:3:forces:R:3 energy=-50.242476552955544 pbc="F F F"
Ba       0.00000000       0.00000000       0.00000000       0.00000000       0.00000000      -9.31138134
Ba       0.00000000       0.00000000       2.53151515       0.00000000       0.00000000       9.31138134
2
Properties=species:S:1:pos:R:3:forces:R:3 energy=-50.747391008249934 pbc="F F F"
Ba       0.00000000       0.00000000       0.00000000       0.00000000       0.00000000      -7.87548971
Ba       0.00000000       0.00000000       2.59030303       0.00000000       0.00000000       7.87548971
2
Properties=species:S:1:pos:R:3:forces:R:3 energy=-51.16972075615512 pbc="F F F"
Ba       0.00000000       0.00000000       0.00000000       0.00000000       0.00000000      -6.50423050
Ba       0.00000000       0.00000000       2.64909091       0.00000000       0.00000000       6.50423050
2
Properties=species:S:1:pos:R:3:forces:R:3 energy=-51.513612328249344 pbc="F F F"
Ba       0.00000000       0.00000000       0.00000000       0.00000000       0.00000000      -5.20884132
Ba       0.00000000       0.00000000       2.70787879       0.00000000       0.00000000       5.20884132
2
Properties=species:S:1:pos:R:3:forces:R:3 energy=-51.78397142521618 pbc="F F F"
Ba       0.00000000       0.00000000       0.00000000       0.00000000       0.00000000      -4.00684023
Ba       0.00000000       0.00000000       2.76666667       0.00000000       0.00000000       4.00684023
2
Properties=species:S:1:pos:R:3:forces:R:3 energy=-51.987187625377786 pbc="F F F"
Ba       0.00000000       0.00000000       0.00000000       0.00000000       0.00000000      -2.93101549
Ba       0.00000000       0.00000000       2.82545455       0.00000000       0.00000000       2.93101549
2
Properties=species:S:1:pos:R:3:forces:R:3 energy=-52.13177915248003 pbc="F F F"
Ba       0.00000000       0.00000000       0.00000000       0.00000000       0.00000000      -2.01751757
Ba       0.00000000       0.00000000       2.88424242       0.00000000       0.00000000       2.01751757
2
Properties=species:S:1:pos:R:3:forces:R:3 energy=-52.228064767378164 pbc="F F F"
Ba       0.00000000       0.00000000       0.00000000       0.00000000       0.00000000      -1.29050851
Ba       0.00000000       0.00000000       2.94303030       0.00000000       0.00000000       1.29050851
2
Properties=species:S:1:pos:R:3:forces:R:3 energy=-52.287374147877586 pbc="F F F"
Ba       0.00000000       0.00000000       0.00000000       0.00000000       0.00000000      -0.76048571
Ba       0.00000000       0.00000000       3.00181818       0.00000000       0.00000000       0.76048571
2
Properties=species:S:1:pos:R:3:forces:R:3 energy=-52.321368890043566 pbc="F F F"
Ba       0.00000000       0.00000000       0.00000000       0.00000000       0.00000000      -0.42843676
Ba       0.00000000       0.00000000       3.06060606       0.00000000       0.00000000       0.42843676
2
Properties=species:S:1:pos:R:3:forces:R:3 energy=-52.34140927954256 pbc="F F F"
Ba       0.00000000       0.00000000       0.00000000       0.00000000       0.00000000      -0.28251469
Ba       0.00000000       0.00000000       3.11939394       0.00000000       0.00000000       0.28251469
2
Properties=species:S:1:pos:R:3:forces:R:3 energy=-52.35763877696973 pbc="F F F"
Ba       0.00000000       0.00000000       0.00000000       0.00000000       0.00000000      -0.29188925
Ba       0.00000000       0.00000000       3.17818182       0.00000000       0.00000000       0.29188925
2
Properties=species:S:1:pos:R:3:forces:R:3 energy=-52.377847263406366 pbc="F F F"
Ba       0.00000000       0.00000000       0.00000000       0.00000000       0.00000000      -0.40903464
Ba       0.00000000       0.00000000       3.23696970       0.00000000       0.00000000       0.40903464
2
Properties=species:S:1:pos:R:3:forces:R:3 energy=-52.406780618228666 pbc="F F F"
Ba       0.00000000       0.00000000       0.00000000       0.00000000       0.00000000      -0.57981712
Ba       0.00000000       0.00000000       3.29575758       0.00000000       0.00000000       0.57981712
2
Properties=species:S:1:pos:R:3:forces:R:3 energy=-52.446060626304295 pbc="F F F"
Ba       0.00000000       0.00000000       0.00000000       0.00000000       0.00000000      -0.75309199
Ba       0.00000000       0.00000000       3.35454545       0.00000000       0.00000000       0.75309199
2
Properties=species:S:1:pos:R:3:forces:R:3 energy=-52.49453981136232 pbc="F F F"
Ba       0.00000000       0.00000000       0.00000000       0.00000000       0.00000000      -0.88678890
Ba       0.00000000       0.00000000       3.41333333       0.00000000       0.00000000       0.88678890
2
Properties=species:S:1:pos:R:3:forces:R:3 energy=-52.548988100507984 pbc="F F F"
Ba       0.00000000       0.00000000       0.00000000       0.00000000       0.00000000      -0.95291102
Ba       0.00000000       0.00000000       3.47212121       0.00000000       0.00000000       0.95291102
2
Properties=species:S:1:pos:R:3:forces:R:3 energy=-52.60505035758586 pbc="F F F"
Ba       0.00000000       0.00000000       0.00000000       0.00000000       0.00000000      -0.94166982
Ba       0.00000000       0.00000000       3.53090909       0.00000000       0.00000000       0.94166982
2
Properties=species:S:1:pos:R:3:forces:R:3 energy=-52.65834888454263 pbc="F F F"
Ba       0.00000000       0.00000000       0.00000000       0.00000000       0.00000000      -0.86149389
Ba       0.00000000       0.00000000       3.58969697       0.00000000       0.00000000       0.86149389
2
Properties=species:S:1:pos:R:3:forces:R:3 energy=-52.70539893451559 pbc="F F F"
Ba       0.00000000       0.00000000       0.00000000       0.00000000       0.00000000      -0.73329800
Ba       0.00000000       0.00000000       3.64848485       0.00000000       0.00000000       0.73329800
2
Properties=species:S:1:pos:R:3:forces:R:3 energy=-52.74410463990026 pbc="F F F"
Ba       0.00000000       0.00000000       0.00000000       0.00000000       0.00000000      -0.58144736
Ba       0.00000000       0.00000000       3.70727273       0.00000000       0.00000000       0.58144736
2
Properties=species:S:1:pos:R:3:forces:R:3 energy=-52.77369407221385 pbc="F F F"
Ba       0.00000000       0.00000000       0.00000000       0.00000000       0.00000000      -0.42583066
Ba       0.00000000       0.00000000       3.76606061       0.00000000       0.00000000       0.42583066
2
Properties=species:S:1:pos:R:3:forces:R:3 energy=-52.79433000200619 pbc="F F F"
Ba       0.00000000       0.00000000       0.00000000       0.00000000       0.00000000      -0.27802458
Ba       0.00000000       0.00000000       3.82484848       0.00000000       0.00000000       0.27802458
2
Properties=species:S:1:pos:R:3:forces:R:3 energy=-52.80661763026608 pbc="F F F"
Ba       0.00000000       0.00000000       0.00000000       0.00000000       0.00000000      -0.14194871
Ba       0.00000000       0.00000000       3.88363636       0.00000000       0.00000000       0.14194871
2
Properties=species:S:1:pos:R:3:forces:R:3 energy=-52.81124949370601 pbc="F F F"
Ba       0.00000000       0.00000000       0.00000000       0.00000000       0.00000000      -0.01750783
Ba       0.00000000       0.00000000       3.94242424       0.00000000       0.00000000       0.01750783
2
Properties=species:S:1:pos:R:3:forces:R:3 energy=-52.80890221926196 pbc="F F F"
Ba       0.00000000       0.00000000       0.00000000       0.00000000       0.00000000       0.09525961
Ba       0.00000000       0.00000000       4.00121212       0.00000000       0.00000000      -0.09525961
2
Properties=species:S:1:pos:R:3:forces:R:3 energy=-52.800324143337185 pbc="F F F"
Ba       0.00000000       0.00000000       0.00000000       0.00000000       0.00000000       0.19381207
Ba       0.00000000       0.00000000       4.06000000       0.00000000       0.00000000      -0.19381207
2
Properties=species:S:1:pos:R:3:forces:R:3 energy=-52.786484244970566 pbc="F F F"
Ba       0.00000000       0.00000000       0.00000000       0.00000000       0.00000000       0.27358314
Ba       0.00000000       0.00000000       4.11878788       0.00000000       0.00000000      -0.27358314
2
Properties=species:S:1:pos:R:3:forces:R:3 energy=-52.76860732708836 pbc="F F F"
Ba       0.00000000       0.00000000       0.00000000       0.00000000       0.00000000       0.33060148
Ba       0.00000000       0.00000000       4.17757576       0.00000000       0.00000000      -0.33060148
2
Properties=species:S:1:pos:R:3:forces:R:3 energy=-52.74807259883738 pbc="F F F"
Ba       0.00000000       0.00000000       0.00000000       0.00000000       0.00000000       0.36427107
Ba       0.00000000       0.00000000       4.23636364       0.00000000       0.00000000      -0.36427107
2
Properties=species:S:1:pos:R:3:forces:R:3 energy=-52.72616049841298 pbc="F F F"
Ba       0.00000000       0.00000000       0.00000000       0.00000000       0.00000000       0.37854490
Ba       0.00000000       0.00000000       4.29515152       0.00000000       0.00000000      -0.37854490
2
Properties=species:S:1:pos:R:3:forces:R:3 energy=-52.703799770896836 pbc="F F F"
Ba       0.00000000       0.00000000       0.00000000       0.00000000       0.00000000       0.38100040
Ba       0.00000000       0.00000000       4.35393939       0.00000000       0.00000000      -0.38100040
2
Properties=species:S:1:pos:R:3:forces:R:3 energy=-52.68142052606473 pbc="F F F"
Ba       0.00000000       0.00000000       0.00000000       0.00000000       0.00000000       0.38054970
Ba       0.00000000       0.00000000       4.41272727       0.00000000       0.00000000      -0.38054970
2
Properties=species:S:1:pos:R:3:forces:R:3 energy=-52.658956771699806 pbc="F F F"
Ba       0.00000000       0.00000000       0.00000000       0.00000000       0.00000000       0.38504630
Ba       0.00000000       0.00000000       4.47151515       0.00000000       0.00000000      -0.38504630
2
Properties=species:S:1:pos:R:3:forces:R:3 energy=-52.635946043663175 pbc="F F F"
Ba       0.00000000       0.00000000       0.00000000       0.00000000       0.00000000       0.39965954
Ba       0.00000000       0.00000000       4.53030303       0.00000000       0.00000000      -0.39965954
2
Properties=species:S:1:pos:R:3:forces:R:3 energy=-52.611727991289044 pbc="F F F"
Ba       0.00000000       0.00000000       0.00000000       0.00000000       0.00000000       0.42628452
Ba       0.00000000       0.00000000       4.58909091       0.00000000       0.00000000      -0.42628452
2
Properties=species:S:1:pos:R:3:forces:R:3 energy=-52.58561309207687 pbc="F F F"
Ba       0.00000000       0.00000000       0.00000000       0.00000000       0.00000000       0.46373805
Ba       0.00000000       0.00000000       4.64787879       0.00000000       0.00000000      -0.46373805
2
Properties=species:S:1:pos:R:3:forces:R:3 energy=-52.557061424218794 pbc="F F F"
Ba       0.00000000       0.00000000       0.00000000       0.00000000       0.00000000       0.50835991
Ba       0.00000000       0.00000000       4.70666667       0.00000000       0.00000000      -0.50835991
2
Properties=species:S:1:pos:R:3:forces:R:3 energy=-52.52580083412609 pbc="F F F"
Ba       0.00000000       0.00000000       0.00000000       0.00000000       0.00000000       0.55513179
Ba       0.00000000       0.00000000       4.76545455       0.00000000       0.00000000      -0.55513179
2
Properties=species:S:1:pos:R:3:forces:R:3 energy=-52.491840174728736 pbc="F F F"
Ba       0.00000000       0.00000000       0.00000000       0.00000000       0.00000000       0.59945202
Ba       0.00000000       0.00000000       4.82424242       0.00000000       0.00000000      -0.59945202
2
Properties=species:S:1:pos:R:3:forces:R:3 energy=-52.45541522049179 pbc="F F F"
Ba       0.00000000       0.00000000       0.00000000       0.00000000       0.00000000       0.63919342
Ba       0.00000000       0.00000000       4.88303030       0.00000000       0.00000000      -0.63919342
2
Properties=species:S:1:pos:R:3:forces:R:3 energy=-52.41674494113569 pbc="F F F"
Ba       0.00000000       0.00000000       0.00000000       0.00000000       0.00000000       0.67621464
Ba       0.00000000       0.00000000       4.94181818       0.00000000       0.00000000      -0.67621464
2
Properties=species:S:1:pos:R:3:forces:R:3 energy=-52.37584791024109 pbc="F F F"
Ba       0.00000000       0.00000000       0.00000000       0.00000000       0.00000000       0.71612918
Ba       0.00000000       0.00000000       5.00060606       0.00000000       0.00000000      -0.71612918
2
Properties=species:S:1:pos:R:3:forces:R:3 energy=-52.332340889128695 pbc="F F F"
Ba       0.00000000       0.00000000       0.00000000       0.00000000       0.00000000       0.76615280
Ba       0.00000000       0.00000000       5.05939394       0.00000000       0.00000000      -0.76615280
2
Properties=species:S:1:pos:R:3:forces:R:3 energy=-52.285474900187204 pbc="F F F"
Ba       0.00000000       0.00000000       0.00000000       0.00000000       0.00000000       0.83083260
Ba       0.00000000       0.00000000       5.11818182       0.00000000       0.00000000      -0.83083260
2
Properties=species:S:1:pos:R:3:forces:R:3 energy=-52.23443595503228 pbc="F F F"
Ba       0.00000000       0.00000000       0.00000000       0.00000000       0.00000000       0.90632093
Ba       0.00000000       0.00000000       5.17696970       0.00000000       0.00000000      -0.90632093
2
Properties=species:S:1:pos:R:3:forces:R:3 energy=-52.17904988334266 pbc="F F F"
Ba       0.00000000       0.00000000       0.00000000       0.00000000       0.00000000       0.97444910
Ba       0.00000000       0.00000000       5.23575758       0.00000000       0.00000000      -0.97444910
2
Properties=species:S:1:pos:R:3:forces:R:3 energy=-52.120633453845464 pbc="F F F"
Ba       0.00000000       0.00000000       0.00000000       0.00000000       0.00000000       1.00376618
Ba       0.00000000       0.00000000       5.29454545       0.00000000       0.00000000      -1.00376618
2
Properties=species:S:1:pos:R:3:forces:R:3 energy=-52.06218225433238 pbc="F F F"
Ba       0.00000000       0.00000000       0.00000000       0.00000000       0.00000000       0.97695643
Ba       0.00000000       0.00000000       5.35333333       0.00000000       0.00000000      -0.97695643
2
Properties=species:S:1:pos:R:3:forces:R:3 energy=-52.00583869252534 pbc="F F F"
Ba       0.00000000       0.00000000       0.00000000       0.00000000       0.00000000       0.94927305
Ba       0.00000000       0.00000000       5.41212121       0.00000000       0.00000000      -0.94927305
2
Properties=species:S:1:pos:R:3:forces:R:3 energy=-51.94855911454029 pbc="F F F"
Ba       0.00000000       0.00000000       0.00000000       0.00000000       0.00000000       1.01726341
Ba       0.00000000       0.00000000       5.47090909       0.00000000       0.00000000      -1.01726341
2
Properties=species:S:1:pos:R:3:forces:R:3 energy=-51.88559728556555 pbc="F F F"
Ba       0.00000000       0.00000000       0.00000000       0.00000000       0.00000000       1.11230183
Ba       0.00000000       0.00000000       5.52969697       0.00000000       0.00000000      -1.11230183
2
Properties=species:S:1:pos:R:3:forces:R:3 energy=-51.82061364172663 pbc="F F F"
Ba       0.00000000       0.00000000       0.00000000       0.00000000       0.00000000       1.07286298
Ba       0.00000000       0.00000000       5.58848485       0.00000000       0.00000000      -1.07286298
2
Properties=species:S:1:pos:R:3:forces:R:3 energy=-51.76105598630502 pbc="F F F"
Ba       0.00000000       0.00000000       0.00000000       0.00000000       0.00000000       0.95931607
Ba       0.00000000       0.00000000       5.64727273       0.00000000       0.00000000      -0.95931607
2
Properties=species:S:1:pos:R:3:forces:R:3 energy=-51.7050256834576 pbc="F F F"
Ba       0.00000000       0.00000000       0.00000000       0.00000000       0.00000000       0.98286557
Ba       0.00000000       0.00000000       5.70606061       0.00000000       0.00000000      -0.98286557
2
Properties=species:S:1:pos:R:3:forces:R:3 energy=-51.64205599584304 pbc="F F F"
Ba       0.00000000       0.00000000       0.00000000       0.00000000       0.00000000       1.15599358
Ba       0.00000000       0.00000000       5.76484848       0.00000000       0.00000000      -1.15599358
2
Properties=species:S:1:pos:R:3:forces:R:3 energy=-51.57358180716991 pbc="F F F"
Ba       0.00000000       0.00000000       0.00000000       0.00000000       0.00000000       1.10761166
Ba       0.00000000       0.00000000       5.82363636       0.00000000       0.00000000      -1.10761166
2
Properties=species:S:1:pos:R:3:forces:R:3 energy=-51.519909178639125 pbc="F F F"
Ba       0.00000000       0.00000000       0.00000000       0.00000000       0.00000000       0.68137574
Ba       0.00000000       0.00000000       5.88242424       0.00000000       0.00000000      -0.68137574
2
Properties=species:S:1:pos:R:3:forces:R:3 energy=-51.494557767995246 pbc="F F F"
Ba       0.00000000       0.00000000       0.00000000       0.00000000       0.00000000       0.20188423
Ba       0.00000000       0.00000000       5.94121212       0.00000000       0.00000000      -0.20188423
2
Properties=species:S:1:pos:R:3:forces:R:3 energy=-51.49037908598827 pbc="F F F"
Ba       0.00000000       0.00000000       0.00000000       0.00000000       0.00000000       0.00546636
Ba       0.00000000       0.00000000       6.00000000       0.00000000       0.00000000      -0.00546636
