2
Properties=species:S:1:pos:R:3:forces:R:3 energy=-2095.5387505356202 pbc="F F F"
Be       0.00000000       0.00000000       0.00000000       0.00000000       0.00000000    3053.70678711
Be       0.00000000       0.00000000       0.18000000       0.00000000       0.00000000   -3053.70678711
2
Properties=species:S:1:pos:R:3:forces:R:3 energy=-1679.0620659653077 pbc="F F F"
Be       0.00000000       0.00000000       0.00000000       0.00000000       0.00000000   11062.02148438
Be       0.00000000       0.00000000       0.23878788       0.00000000       0.00000000  -11062.02148438
2
Properties=species:S:1:pos:R:3:forces:R:3 energy=-868.3466118629533 pbc="F F F"
Be       0.00000000       0.00000000       0.00000000       0.00000000       0.00000000   15117.24121094
Be       0.00000000       0.00000000       0.29757576       0.00000000       0.00000000  -15117.24121094
2
Properties=species:S:1:pos:R:3:forces:R:3 energy=-127.8358467872697 pbc="F F F"
Be       0.00000000       0.00000000       0.00000000       0.00000000       0.00000000    8301.92187500
Be       0.00000000       0.00000000       0.35636364       0.00000000       0.00000000   -8301.92187500
2
Properties=species:S:1:pos:R:3:forces:R:3 energy=70.74121009987178 pbc="F F F"
Be       0.00000000       0.00000000       0.00000000       0.00000000       0.00000000      52.18267441
Be       0.00000000       0.00000000       0.41515152       0.00000000       0.00000000     -52.18267441
2
Properties=species:S:1:pos:R:3:forces:R:3 energy=40.48967278004156 pbc="F F F"
Be       0.00000000       0.00000000       0.00000000       0.00000000       0.00000000   -1059.22839355
Be       0.00000000       0.00000000       0.47393939       0.00000000       0.00000000    1059.22839355
2
Properties=species:S:1:pos:R:3:forces:R:3 energy=48.44283211944455 pbc="F F F"
Be       0.00000000       0.00000000       0.00000000       0.00000000       0.00000000    -379.56213379
Be       0.00000000       0.00000000       0.53272727       0.00000000       0.00000000     379.56213379
2
Properties=species:S:1:pos:R:3:forces:R:3 energy=39.27765955362763 pbc="F F F"
Be       0.00000000       0.00000000       0.00000000       0.00000000       0.00000000    -110.03070831
Be       0.00000000       0.00000000       0.59151515       0.00000000       0.00000000     110.03070831
2
Properties=species:S:1:pos:R:3:forces:R:3 energy=26.325307048038898 pbc="F F F"
Be       0.00000000       0.00000000       0.00000000       0.00000000       0.00000000    -282.75204468
Be       0.00000000       0.00000000       0.65030303       0.00000000       0.00000000     282.75204468
2
Properties=species:S:1:pos:R:3:forces:R:3 energy=10.283208079901726 pbc="F F F"
Be       0.00000000       0.00000000       0.00000000       0.00000000       0.00000000    -240.42852783
Be       0.00000000       0.00000000       0.70909091       0.00000000       0.00000000     240.42852783
2
Properties=species:S:1:pos:R:3:forces:R:3 energy=2.4283482945103056 pbc="F F F"
Be       0.00000000       0.00000000       0.00000000       0.00000000       0.00000000     -21.30784988
Be       0.00000000       0.00000000       0.76787879       0.00000000       0.00000000      21.30784988
2
Properties=species:S:1:pos:R:3:forces:R:3 energy=4.151977836466418 pbc="F F F"
Be       0.00000000       0.00000000       0.00000000       0.00000000       0.00000000      53.82075500
Be       0.00000000       0.00000000       0.82666667       0.00000000       0.00000000     -53.82075500
2
Properties=species:S:1:pos:R:3:forces:R:3 energy=6.689651879320529 pbc="F F F"
Be       0.00000000       0.00000000       0.00000000       0.00000000       0.00000000      24.07817268
Be       0.00000000       0.00000000       0.88545455       0.00000000       0.00000000     -24.07817268
2
Properties=species:S:1:pos:R:3:forces:R:3 energy=7.03983406721215 pbc="F F F"
Be       0.00000000       0.00000000       0.00000000       0.00000000       0.00000000      -5.24124861
Be       0.00000000       0.00000000       0.94424242       0.00000000       0.00000000       5.24124861
2
Properties=species:S:1:pos:R:3:forces:R:3 energy=6.785974250982358 pbc="F F F"
Be       0.00000000       0.00000000       0.00000000       0.00000000       0.00000000      -1.92362070
Be       0.00000000       0.00000000       1.00303030       0.00000000       0.00000000       1.92362070
2
Properties=species:S:1:pos:R:3:forces:R:3 energy=6.653104295232654 pbc="F F F"
Be       0.00000000       0.00000000       0.00000000       0.00000000       0.00000000      -4.36030960
Be       0.00000000       0.00000000       1.06181818       0.00000000       0.00000000       4.36030960
2
Properties=species:S:1:pos:R:3:forces:R:3 energy=6.184799504251295 pbc="F F F"
Be       0.00000000       0.00000000       0.00000000       0.00000000       0.00000000     -11.45574379
Be       0.00000000       0.00000000       1.12060606       0.00000000       0.00000000      11.45574379
2
Properties=species:S:1:pos:R:3:forces:R:3 energy=5.357977163890916 pbc="F F F"
Be       0.00000000       0.00000000       0.00000000       0.00000000       0.00000000     -16.16085815
Be       0.00000000       0.00000000       1.17939394       0.00000000       0.00000000      16.16085815
2
Properties=species:S:1:pos:R:3:forces:R:3 energy=4.332870793945901 pbc="F F F"
Be       0.00000000       0.00000000       0.00000000       0.00000000       0.00000000     -18.40137482
Be       0.00000000       0.00000000       1.23818182       0.00000000       0.00000000      18.40137482
2
Properties=species:S:1:pos:R:3:forces:R:3 energy=3.2281217954622328 pbc="F F F"
Be       0.00000000       0.00000000       0.00000000       0.00000000       0.00000000     -18.89643860
Be       0.00000000       0.00000000       1.29696970       0.00000000       0.00000000      18.89643860
2
Properties=species:S:1:pos:R:3:forces:R:3 energy=2.14270538407359 pbc="F F F"
Be       0.00000000       0.00000000       0.00000000       0.00000000       0.00000000     -17.80081177
Be       0.00000000       0.00000000       1.35575758       0.00000000       0.00000000      17.80081177
2
Properties=species:S:1:pos:R:3:forces:R:3 energy=1.1573044525127965 pbc="F F F"
Be       0.00000000       0.00000000       0.00000000       0.00000000       0.00000000     -15.55777454
Be       0.00000000       0.00000000       1.41454545       0.00000000       0.00000000      15.55777454
2
Properties=species:S:1:pos:R:3:forces:R:3 energy=0.33253184841017225 pbc="F F F"
Be       0.00000000       0.00000000       0.00000000       0.00000000       0.00000000     -12.35132504
Be       0.00000000       0.00000000       1.47333333       0.00000000       0.00000000      12.35132504
2
Properties=species:S:1:pos:R:3:forces:R:3 energy=-0.28389280982697107 pbc="F F F"
Be       0.00000000       0.00000000       0.00000000       0.00000000       0.00000000      -8.62118626
Be       0.00000000       0.00000000       1.53212121       0.00000000       0.00000000       8.62118626
2
Properties=species:S:1:pos:R:3:forces:R:3 energy=-0.6966684113959231 pbc="F F F"
Be       0.00000000       0.00000000       0.00000000       0.00000000       0.00000000      -5.67819834
Be       0.00000000       0.00000000       1.59090909       0.00000000       0.00000000       5.67819834
2
Properties=species:S:1:pos:R:3:forces:R:3 energy=-0.9885132316071199 pbc="F F F"
Be       0.00000000       0.00000000       0.00000000       0.00000000       0.00000000      -4.55526447
Be       0.00000000       0.00000000       1.64969697       0.00000000       0.00000000       4.55526447
2
Properties=species:S:1:pos:R:3:forces:R:3 energy=-1.2566961294513392 pbc="F F F"
Be       0.00000000       0.00000000       0.00000000       0.00000000       0.00000000      -4.65315866
Be       0.00000000       0.00000000       1.70848485       0.00000000       0.00000000       4.65315866
2
Properties=species:S:1:pos:R:3:forces:R:3 energy=-1.5327324295051563 pbc="F F F"
Be       0.00000000       0.00000000       0.00000000       0.00000000       0.00000000      -4.63702250
Be       0.00000000       0.00000000       1.76727273       0.00000000       0.00000000       4.63702250
2
Properties=species:S:1:pos:R:3:forces:R:3 energy=-1.7874502097828913 pbc="F F F"
Be       0.00000000       0.00000000       0.00000000       0.00000000       0.00000000      -3.91214657
Be       0.00000000       0.00000000       1.82606061       0.00000000       0.00000000       3.91214657
2
Properties=species:S:1:pos:R:3:forces:R:3 energy=-1.9826480508773374 pbc="F F F"
Be       0.00000000       0.00000000       0.00000000       0.00000000       0.00000000      -2.67918611
Be       0.00000000       0.00000000       1.88484848       0.00000000       0.00000000       2.67918611
2
Properties=species:S:1:pos:R:3:forces:R:3 energy=-2.100606586259436 pbc="F F F"
Be       0.00000000       0.00000000       0.00000000       0.00000000       0.00000000      -1.34667647
Be       0.00000000       0.00000000       1.94363636       0.00000000       0.00000000       1.34667647
2
Properties=species:S:1:pos:R:3:forces:R:3 energy=-2.1448593712770805 pbc="F F F"
Be       0.00000000       0.00000000       0.00000000       0.00000000       0.00000000      -0.20694891
Be       0.00000000       0.00000000       2.00242424       0.00000000       0.00000000       0.20694891
2
Properties=species:S:1:pos:R:3:forces:R:3 energy=-2.1316530860316907 pbc="F F F"
Be       0.00000000       0.00000000       0.00000000       0.00000000       0.00000000       0.59360856
Be       0.00000000       0.00000000       2.06121212       0.00000000       0.00000000      -0.59360856
2
Properties=species:S:1:pos:R:3:forces:R:3 energy=-2.0825066807219006 pbc="F F F"
Be       0.00000000       0.00000000       0.00000000       0.00000000       0.00000000       1.01749873
Be       0.00000000       0.00000000       2.12000000       0.00000000       0.00000000      -1.01749873
2
Properties=species:S:1:pos:R:3:forces:R:3 energy=-2.0183999351295476 pbc="F F F"
Be       0.00000000       0.00000000       0.00000000       0.00000000       0.00000000       1.11810994
Be       0.00000000       0.00000000       2.17878788       0.00000000       0.00000000      -1.11810994
2
Properties=species:S:1:pos:R:3:forces:R:3 energy=-1.9550776833279633 pbc="F F F"
Be       0.00000000       0.00000000       0.00000000       0.00000000       0.00000000       1.01319242
Be       0.00000000       0.00000000       2.23757576       0.00000000       0.00000000      -1.01319242
2
Properties=species:S:1:pos:R:3:forces:R:3 energy=-1.9007554807072071 pbc="F F F"
Be       0.00000000       0.00000000       0.00000000       0.00000000       0.00000000       0.83111030
Be       0.00000000       0.00000000       2.29636364       0.00000000       0.00000000      -0.83111030
2
Properties=species:S:1:pos:R:3:forces:R:3 energy=-1.8570955331855736 pbc="F F F"
Be       0.00000000       0.00000000       0.00000000       0.00000000       0.00000000       0.66049916
Be       0.00000000       0.00000000       2.35515152       0.00000000       0.00000000      -0.66049916
2
Properties=species:S:1:pos:R:3:forces:R:3 energy=-1.8221891672603463 pbc="F F F"
Be       0.00000000       0.00000000       0.00000000       0.00000000       0.00000000       0.53501076
Be       0.00000000       0.00000000       2.41393939       0.00000000       0.00000000      -0.53501076
2
Properties=species:S:1:pos:R:3:forces:R:3 energy=-1.7933325441205976 pbc="F F F"
Be       0.00000000       0.00000000       0.00000000       0.00000000       0.00000000       0.45323062
Be       0.00000000       0.00000000       2.47272727       0.00000000       0.00000000      -0.45323062
2
Properties=species:S:1:pos:R:3:forces:R:3 energy=-1.7682267400951843 pbc="F F F"
Be       0.00000000       0.00000000       0.00000000       0.00000000       0.00000000       0.40578359
Be       0.00000000       0.00000000       2.53151515       0.00000000       0.00000000      -0.40578359
2
Properties=species:S:1:pos:R:3:forces:R:3 energy=-1.7451684010816393 pbc="F F F"
Be       0.00000000       0.00000000       0.00000000       0.00000000       0.00000000       0.38136506
Be       0.00000000       0.00000000       2.59030303       0.00000000       0.00000000      -0.38136506
2
Properties=species:S:1:pos:R:3:forces:R:3 energy=-1.7232034876065054 pbc="F F F"
Be       0.00000000       0.00000000       0.00000000       0.00000000       0.00000000       0.36649284
Be       0.00000000       0.00000000       2.64909091       0.00000000       0.00000000      -0.36649284
2
Properties=species:S:1:pos:R:3:forces:R:3 energy=-1.702073357177935 pbc="F F F"
Be       0.00000000       0.00000000       0.00000000       0.00000000       0.00000000       0.35197663
Be       0.00000000       0.00000000       2.70787879       0.00000000       0.00000000      -0.35197663
2
Properties=species:S:1:pos:R:3:forces:R:3 energy=-1.6818982834456775 pbc="F F F"
Be       0.00000000       0.00000000       0.00000000       0.00000000       0.00000000       0.33356053
Be       0.00000000       0.00000000       2.76666667       0.00000000       0.00000000      -0.33356053
2
Properties=species:S:1:pos:R:3:forces:R:3 energy=-1.6629599969986297 pbc="F F F"
Be       0.00000000       0.00000000       0.00000000       0.00000000       0.00000000       0.30984420
Be       0.00000000       0.00000000       2.82545455       0.00000000       0.00000000      -0.30984420
2
Properties=species:S:1:pos:R:3:forces:R:3 energy=-1.6455610000338847 pbc="F F F"
Be       0.00000000       0.00000000       0.00000000       0.00000000       0.00000000       0.28145343
Be       0.00000000       0.00000000       2.88424242       0.00000000       0.00000000      -0.28145343
2
Properties=species:S:1:pos:R:3:forces:R:3 energy=-1.629915888108623 pbc="F F F"
Be       0.00000000       0.00000000       0.00000000       0.00000000       0.00000000       0.25064784
Be       0.00000000       0.00000000       2.94303030       0.00000000       0.00000000      -0.25064784
2
Properties=species:S:1:pos:R:3:forces:R:3 energy=-1.6160723018877812 pbc="F F F"
Be       0.00000000       0.00000000       0.00000000       0.00000000       0.00000000       0.22078350
Be       0.00000000       0.00000000       3.00181818       0.00000000       0.00000000      -0.22078350
2
Properties=species:S:1:pos:R:3:forces:R:3 energy=-1.6038667614073214 pbc="F F F"
Be       0.00000000       0.00000000       0.00000000       0.00000000       0.00000000       0.19552775
Be       0.00000000       0.00000000       3.06060606       0.00000000       0.00000000      -0.19552775
2
Properties=species:S:1:pos:R:3:forces:R:3 energy=-1.5929309831112193 pbc="F F F"
Be       0.00000000       0.00000000       0.00000000       0.00000000       0.00000000       0.17800686
Be       0.00000000       0.00000000       3.11939394       0.00000000       0.00000000      -0.17800686
2
Properties=species:S:1:pos:R:3:forces:R:3 energy=-1.5827461846988626 pbc="F F F"
Be       0.00000000       0.00000000       0.00000000       0.00000000       0.00000000       0.17018344
Be       0.00000000       0.00000000       3.17818182       0.00000000       0.00000000      -0.17018344
2
Properties=species:S:1:pos:R:3:forces:R:3 energy=-1.5727192287749976 pbc="F F F"
Be       0.00000000       0.00000000       0.00000000       0.00000000       0.00000000       0.17263570
Be       0.00000000       0.00000000       3.23696970       0.00000000       0.00000000      -0.17263570
2
Properties=species:S:1:pos:R:3:forces:R:3 energy=-1.5622602870379687 pbc="F F F"
Be       0.00000000       0.00000000       0.00000000       0.00000000       0.00000000       0.18467154
Be       0.00000000       0.00000000       3.29575758       0.00000000       0.00000000      -0.18467154
2
Properties=species:S:1:pos:R:3:forces:R:3 energy=-1.5508510390007952 pbc="F F F"
Be       0.00000000       0.00000000       0.00000000       0.00000000       0.00000000       0.20461094
Be       0.00000000       0.00000000       3.35454545       0.00000000       0.00000000      -0.20461094
2
Properties=species:S:1:pos:R:3:forces:R:3 energy=-1.5380938654140197 pbc="F F F"
Be       0.00000000       0.00000000       0.00000000       0.00000000       0.00000000       0.23009272
Be       0.00000000       0.00000000       3.41333333       0.00000000       0.00000000      -0.23009272
2
Properties=species:S:1:pos:R:3:forces:R:3 energy=-1.523742873943254 pbc="F F F"
Be       0.00000000       0.00000000       0.00000000       0.00000000       0.00000000       0.25836501
Be       0.00000000       0.00000000       3.47212121       0.00000000       0.00000000      -0.25836501
2
Properties=species:S:1:pos:R:3:forces:R:3 energy=-1.507717817729697 pbc="F F F"
Be       0.00000000       0.00000000       0.00000000       0.00000000       0.00000000       0.28657654
Be       0.00000000       0.00000000       3.53090909       0.00000000       0.00000000      -0.28657654
2
Properties=species:S:1:pos:R:3:forces:R:3 energy=-1.4901017492182114 pbc="F F F"
Be       0.00000000       0.00000000       0.00000000       0.00000000       0.00000000       0.31208211
Be       0.00000000       0.00000000       3.58969697       0.00000000       0.00000000      -0.31208211
2
Properties=species:S:1:pos:R:3:forces:R:3 energy=-1.4711201886259606 pbc="F F F"
Be       0.00000000       0.00000000       0.00000000       0.00000000       0.00000000       0.33272621
Be       0.00000000       0.00000000       3.64848485       0.00000000       0.00000000      -0.33272621
2
Properties=species:S:1:pos:R:3:forces:R:3 energy=-1.4511057948111459 pbc="F F F"
Be       0.00000000       0.00000000       0.00000000       0.00000000       0.00000000       0.34705359
Be       0.00000000       0.00000000       3.70727273       0.00000000       0.00000000      -0.34705359
2
Properties=species:S:1:pos:R:3:forces:R:3 energy=-1.430452310889461 pbc="F F F"
Be       0.00000000       0.00000000       0.00000000       0.00000000       0.00000000       0.35439953
Be       0.00000000       0.00000000       3.76606061       0.00000000       0.00000000      -0.35439953
2
Properties=species:S:1:pos:R:3:forces:R:3 energy=-1.4095721811639004 pbc="F F F"
Be       0.00000000       0.00000000       0.00000000       0.00000000       0.00000000       0.35485774
Be       0.00000000       0.00000000       3.82484848       0.00000000       0.00000000      -0.35485774
2
Properties=species:S:1:pos:R:3:forces:R:3 energy=-1.3888511323854416 pbc="F F F"
Be       0.00000000       0.00000000       0.00000000       0.00000000       0.00000000       0.34913671
Be       0.00000000       0.00000000       3.88363636       0.00000000       0.00000000      -0.34913671
2
Properties=species:S:1:pos:R:3:forces:R:3 energy=-1.3686216106723168 pbc="F F F"
Be       0.00000000       0.00000000       0.00000000       0.00000000       0.00000000       0.33834839
Be       0.00000000       0.00000000       3.94242424       0.00000000       0.00000000      -0.33834839
2
Properties=species:S:1:pos:R:3:forces:R:3 energy=-1.349143940106622 pbc="F F F"
Be       0.00000000       0.00000000       0.00000000       0.00000000       0.00000000       0.32377580
Be       0.00000000       0.00000000       4.00121212       0.00000000       0.00000000      -0.32377580
2
Properties=species:S:1:pos:R:3:forces:R:3 energy=-1.330603239131898 pbc="F F F"
Be       0.00000000       0.00000000       0.00000000       0.00000000       0.00000000       0.30665967
Be       0.00000000       0.00000000       4.06000000       0.00000000       0.00000000      -0.30665967
2
Properties=species:S:1:pos:R:3:forces:R:3 energy=-1.3131170451959289 pbc="F F F"
Be       0.00000000       0.00000000       0.00000000       0.00000000       0.00000000       0.28807011
Be       0.00000000       0.00000000       4.11878788       0.00000000       0.00000000      -0.28807011
2
Properties=species:S:1:pos:R:3:forces:R:3 energy=-1.2967451766515974 pbc="F F F"
Be       0.00000000       0.00000000       0.00000000       0.00000000       0.00000000       0.26885417
Be       0.00000000       0.00000000       4.17757576       0.00000000       0.00000000      -0.26885417
2
Properties=species:S:1:pos:R:3:forces:R:3 energy=-1.2815051788634138 pbc="F F F"
Be       0.00000000       0.00000000       0.00000000       0.00000000       0.00000000       0.24966636
Be       0.00000000       0.00000000       4.23636364       0.00000000       0.00000000      -0.24966636
2
Properties=species:S:1:pos:R:3:forces:R:3 energy=-1.267379479556714 pbc="F F F"
Be       0.00000000       0.00000000       0.00000000       0.00000000       0.00000000       0.23102209
Be       0.00000000       0.00000000       4.29515152       0.00000000       0.00000000      -0.23102209
2
Properties=species:S:1:pos:R:3:forces:R:3 energy=-1.2543240542498832 pbc="F F F"
Be       0.00000000       0.00000000       0.00000000       0.00000000       0.00000000       0.21333508
Be       0.00000000       0.00000000       4.35393939       0.00000000       0.00000000      -0.21333508
2
Properties=species:S:1:pos:R:3:forces:R:3 energy=-1.2422717970005996 pbc="F F F"
Be       0.00000000       0.00000000       0.00000000       0.00000000       0.00000000       0.19691722
Be       0.00000000       0.00000000       4.41272727       0.00000000       0.00000000      -0.19691722
2
Properties=species:S:1:pos:R:3:forces:R:3 energy=-1.231142684873667 pbc="F F F"
Be       0.00000000       0.00000000       0.00000000       0.00000000       0.00000000       0.18195206
Be       0.00000000       0.00000000       4.47151515       0.00000000       0.00000000      -0.18195206
2
Properties=species:S:1:pos:R:3:forces:R:3 energy=-1.2208494350465602 pbc="F F F"
Be       0.00000000       0.00000000       0.00000000       0.00000000       0.00000000       0.16846487
Be       0.00000000       0.00000000       4.53030303       0.00000000       0.00000000      -0.16846487
2
Properties=species:S:1:pos:R:3:forces:R:3 energy=-1.2113091786082892 pbc="F F F"
Be       0.00000000       0.00000000       0.00000000       0.00000000       0.00000000       0.15630263
Be       0.00000000       0.00000000       4.58909091       0.00000000       0.00000000      -0.15630263
2
Properties=species:S:1:pos:R:3:forces:R:3 energy=-1.202452172341003 pbc="F F F"
Be       0.00000000       0.00000000       0.00000000       0.00000000       0.00000000       0.14515534
Be       0.00000000       0.00000000       4.64787879       0.00000000       0.00000000      -0.14515534
2
Properties=species:S:1:pos:R:3:forces:R:3 energy=-1.1942307897258644 pbc="F F F"
Be       0.00000000       0.00000000       0.00000000       0.00000000       0.00000000       0.13459833
Be       0.00000000       0.00000000       4.70666667       0.00000000       0.00000000      -0.13459833
2
Properties=species:S:1:pos:R:3:forces:R:3 energy=-1.186623694060139 pbc="F F F"
Be       0.00000000       0.00000000       0.00000000       0.00000000       0.00000000       0.12419936
Be       0.00000000       0.00000000       4.76545455       0.00000000       0.00000000      -0.12419936
2
Properties=species:S:1:pos:R:3:forces:R:3 energy=-1.179630945332635 pbc="F F F"
Be       0.00000000       0.00000000       0.00000000       0.00000000       0.00000000       0.11364405
Be       0.00000000       0.00000000       4.82424242       0.00000000       0.00000000      -0.11364405
2
Properties=species:S:1:pos:R:3:forces:R:3 energy=-1.1732664654878409 pbc="F F F"
Be       0.00000000       0.00000000       0.00000000       0.00000000       0.00000000       0.10288507
Be       0.00000000       0.00000000       4.88303030       0.00000000       0.00000000      -0.10288507
2
Properties=species:S:1:pos:R:3:forces:R:3 energy=-1.1675328527956512 pbc="F F F"
Be       0.00000000       0.00000000       0.00000000       0.00000000       0.00000000       0.09221777
Be       0.00000000       0.00000000       4.94181818       0.00000000       0.00000000      -0.09221777
2
Properties=species:S:1:pos:R:3:forces:R:3 energy=-1.162409599138636 pbc="F F F"
Be       0.00000000       0.00000000       0.00000000       0.00000000       0.00000000       0.08227051
Be       0.00000000       0.00000000       5.00060606       0.00000000       0.00000000      -0.08227051
2
Properties=species:S:1:pos:R:3:forces:R:3 energy=-1.1578299602420445 pbc="F F F"
Be       0.00000000       0.00000000       0.00000000       0.00000000       0.00000000       0.07384087
Be       0.00000000       0.00000000       5.05939394       0.00000000       0.00000000      -0.07384087
2
Properties=species:S:1:pos:R:3:forces:R:3 energy=-1.153682944217862 pbc="F F F"
Be       0.00000000       0.00000000       0.00000000       0.00000000       0.00000000       0.06768091
Be       0.00000000       0.00000000       5.11818182       0.00000000       0.00000000      -0.06768091
2
Properties=species:S:1:pos:R:3:forces:R:3 energy=-1.1498183579527483 pbc="F F F"
Be       0.00000000       0.00000000       0.00000000       0.00000000       0.00000000       0.06427059
Be       0.00000000       0.00000000       5.17696970       0.00000000       0.00000000      -0.06427059
2
Properties=species:S:1:pos:R:3:forces:R:3 energy=-1.146071102836395 pbc="F F F"
Be       0.00000000       0.00000000       0.00000000       0.00000000       0.00000000       0.06366865
Be       0.00000000       0.00000000       5.23575758       0.00000000       0.00000000      -0.06366865
2
Properties=species:S:1:pos:R:3:forces:R:3 energy=-1.1422863421768201 pbc="F F F"
Be       0.00000000       0.00000000       0.00000000       0.00000000       0.00000000       0.06540227
Be       0.00000000       0.00000000       5.29454545       0.00000000       0.00000000      -0.06540227
2
Properties=species:S:1:pos:R:3:forces:R:3 energy=-1.1383575412390465 pbc="F F F"
Be       0.00000000       0.00000000       0.00000000       0.00000000       0.00000000       0.06830251
Be       0.00000000       0.00000000       5.35333333       0.00000000       0.00000000      -0.06830251
2
Properties=species:S:1:pos:R:3:forces:R:3 energy=-1.134275099091549 pbc="F F F"
Be       0.00000000       0.00000000       0.00000000       0.00000000       0.00000000       0.07017908
Be       0.00000000       0.00000000       5.41212121       0.00000000       0.00000000      -0.07017908
2
Properties=species:S:1:pos:R:3:forces:R:3 energy=-1.1301852498746265 pbc="F F F"
Be       0.00000000       0.00000000       0.00000000       0.00000000       0.00000000       0.06809326
Be       0.00000000       0.00000000       5.47090909       0.00000000       0.00000000      -0.06809326
2
Properties=species:S:1:pos:R:3:forces:R:3 energy=-1.126359798292032 pbc="F F F"
Be       0.00000000       0.00000000       0.00000000       0.00000000       0.00000000       0.06152666
Be       0.00000000       0.00000000       5.52969697       0.00000000       0.00000000      -0.06152666
2
Properties=species:S:1:pos:R:3:forces:R:3 energy=-1.1229754711355704 pbc="F F F"
Be       0.00000000       0.00000000       0.00000000       0.00000000       0.00000000       0.05357110
Be       0.00000000       0.00000000       5.58848485       0.00000000       0.00000000      -0.05357110
2
Properties=species:S:1:pos:R:3:forces:R:3 energy=-1.1200737481102763 pbc="F F F"
Be       0.00000000       0.00000000       0.00000000       0.00000000       0.00000000       0.04502691
Be       0.00000000       0.00000000       5.64727273       0.00000000       0.00000000      -0.04502691
2
Properties=species:S:1:pos:R:3:forces:R:3 energy=-1.1177086892730101 pbc="F F F"
Be       0.00000000       0.00000000       0.00000000       0.00000000       0.00000000       0.03514845
Be       0.00000000       0.00000000       5.70606061       0.00000000       0.00000000      -0.03514845
2
Properties=species:S:1:pos:R:3:forces:R:3 energy=-1.1159576793116528 pbc="F F F"
Be       0.00000000       0.00000000       0.00000000       0.00000000       0.00000000       0.02436379
Be       0.00000000       0.00000000       5.76484848       0.00000000       0.00000000      -0.02436379
2
Properties=species:S:1:pos:R:3:forces:R:3 energy=-1.1148023449884203 pbc="F F F"
Be       0.00000000       0.00000000       0.00000000       0.00000000       0.00000000       0.01546970
Be       0.00000000       0.00000000       5.82363636       0.00000000       0.00000000      -0.01546970
2
Properties=species:S:1:pos:R:3:forces:R:3 energy=-1.1140901649968968 pbc="F F F"
Be       0.00000000       0.00000000       0.00000000       0.00000000       0.00000000       0.00915135
Be       0.00000000       0.00000000       5.88242424       0.00000000       0.00000000      -0.00915135
2
Properties=species:S:1:pos:R:3:forces:R:3 energy=-1.1136919672123071 pbc="F F F"
Be       0.00000000       0.00000000       0.00000000       0.00000000       0.00000000       0.00471310
Be       0.00000000       0.00000000       5.94121212       0.00000000       0.00000000      -0.00471310
2
Properties=species:S:1:pos:R:3:forces:R:3 energy=-1.1134826112429217 pbc="F F F"
Be       0.00000000       0.00000000       0.00000000       0.00000000       0.00000000       0.00294757
Be       0.00000000       0.00000000       6.00000000       0.00000000       0.00000000      -0.00294757
