2
Properties=species:S:1:pos:R:3:forces:R:3 energy=1193984.8625805795 pbc="F F F"
Bi       0.00000000       0.00000000       0.00000000       0.00000000       0.00000000 -594362.37500000
Bi       0.00000000       0.00000000       0.18000000       0.00000000       0.00000000  594362.37500000
2
Properties=species:S:1:pos:R:3:forces:R:3 energy=1153799.3625805795 pbc="F F F"
Bi       0.00000000       0.00000000       0.00000000       0.00000000       0.00000000 -869418.81250000
Bi       0.00000000       0.00000000       0.23878788       0.00000000       0.00000000  869418.81250000
2
Properties=species:S:1:pos:R:3:forces:R:3 energy=1082395.8625805795 pbc="F F F"
Bi       0.00000000       0.00000000       0.00000000       0.00000000       0.00000000 -1628157.50000000
Bi       0.00000000       0.00000000       0.29757576       0.00000000       0.00000000 1628157.50000000
2
Properties=species:S:1:pos:R:3:forces:R:3 energy=956235.7375805794 pbc="F F F"
Bi       0.00000000       0.00000000       0.00000000       0.00000000       0.00000000 -2692722.00000000
Bi       0.00000000       0.00000000       0.35636364       0.00000000       0.00000000 2692722.00000000
2
Properties=species:S:1:pos:R:3:forces:R:3 energy=766683.7375805802 pbc="F F F"
Bi       0.00000000       0.00000000       0.00000000       0.00000000       0.00000000 -3703032.00000000
Bi       0.00000000       0.00000000       0.41515152       0.00000000       0.00000000 3703032.00000000
2
Properties=species:S:1:pos:R:3:forces:R:3 energy=533089.675080581 pbc="F F F"
Bi       0.00000000       0.00000000       0.00000000       0.00000000       0.00000000 -4093585.25000000
Bi       0.00000000       0.00000000       0.47393939       0.00000000       0.00000000 4093585.25000000
2
Properties=species:S:1:pos:R:3:forces:R:3 energy=305815.86258058256 pbc="F F F"
Bi       0.00000000       0.00000000       0.00000000       0.00000000       0.00000000 -3466958.25000000
Bi       0.00000000       0.00000000       0.53272727       0.00000000       0.00000000 3466958.25000000
2
Properties=species:S:1:pos:R:3:forces:R:3 energy=140104.25320558494 pbc="F F F"
Bi       0.00000000       0.00000000       0.00000000       0.00000000       0.00000000 -2115725.50000000
Bi       0.00000000       0.00000000       0.59151515       0.00000000       0.00000000 2115725.50000000
2
Properties=species:S:1:pos:R:3:forces:R:3 energy=54372.495393089695 pbc="F F F"
Bi       0.00000000       0.00000000       0.00000000       0.00000000       0.00000000 -886678.31250000
Bi       0.00000000       0.00000000       0.65030303       0.00000000       0.00000000  886678.31250000
2
Properties=species:S:1:pos:R:3:forces:R:3 energy=22877.997346221033 pbc="F F F"
Bi       0.00000000       0.00000000       0.00000000       0.00000000       0.00000000 -297535.15625000
Bi       0.00000000       0.00000000       0.70909091       0.00000000       0.00000000  297535.15625000
2
Properties=species:S:1:pos:R:3:forces:R:3 energy=7056.280549357122 pbc="F F F"
Bi       0.00000000       0.00000000       0.00000000       0.00000000       0.00000000 -317380.46875000
Bi       0.00000000       0.00000000       0.76787879       0.00000000       0.00000000  317380.46875000
2
Properties=species:S:1:pos:R:3:forces:R:3 energy=5195.175080621377 pbc="F F F"
Bi       0.00000000       0.00000000       0.00000000       0.00000000       0.00000000    4718.42822266
Bi       0.00000000       0.00000000       0.82666667       0.00000000       0.00000000   -4718.42822266
2
Properties=species:S:1:pos:R:3:forces:R:3 energy=5002.522248612302 pbc="F F F"
Bi       0.00000000       0.00000000       0.00000000       0.00000000       0.00000000  -10093.66308594
Bi       0.00000000       0.00000000       0.88545455       0.00000000       0.00000000   10093.66308594
2
Properties=species:S:1:pos:R:3:forces:R:3 energy=4146.7873853619385 pbc="F F F"
Bi       0.00000000       0.00000000       0.00000000       0.00000000       0.00000000  -18350.90234375
Bi       0.00000000       0.00000000       0.94424242       0.00000000       0.00000000   18350.90234375
2
Properties=species:S:1:pos:R:3:forces:R:3 energy=2990.9961256382867 pbc="F F F"
Bi       0.00000000       0.00000000       0.00000000       0.00000000       0.00000000  -19399.47265625
Bi       0.00000000       0.00000000       1.00303030       0.00000000       0.00000000   19399.47265625
2
Properties=species:S:1:pos:R:3:forces:R:3 energy=1972.4670729593486 pbc="F F F"
Bi       0.00000000       0.00000000       0.00000000       0.00000000       0.00000000  -15112.48046875
Bi       0.00000000       0.00000000       1.06181818       0.00000000       0.00000000   15112.48046875
2
Properties=species:S:1:pos:R:3:forces:R:3 energy=1189.0368972541264 pbc="F F F"
Bi       0.00000000       0.00000000       0.00000000       0.00000000       0.00000000  -11858.21191406
Bi       0.00000000       0.00000000       1.12060606       0.00000000       0.00000000   11858.21191406
2
Properties=species:S:1:pos:R:3:forces:R:3 energy=567.2726761593387 pbc="F F F"
Bi       0.00000000       0.00000000       0.00000000       0.00000000       0.00000000   -9228.91210938
Bi       0.00000000       0.00000000       1.17939394       0.00000000       0.00000000    9228.91210938
2
Properties=species:S:1:pos:R:3:forces:R:3 energy=124.37014179802053 pbc="F F F"
Bi       0.00000000       0.00000000       0.00000000       0.00000000       0.00000000   -5322.13574219
Bi       0.00000000       0.00000000       1.23818182       0.00000000       0.00000000    5322.13574219
2
Properties=species:S:1:pos:R:3:forces:R:3 energy=-9.562208199903912 pbc="F F F"
Bi       0.00000000       0.00000000       0.00000000       0.00000000       0.00000000   -1002.23999023
Bi       0.00000000       0.00000000       1.29696970       0.00000000       0.00000000    1002.23999023
2
Properties=species:S:1:pos:R:3:forces:R:3 energy=-46.92192632229307 pbc="F F F"
Bi       0.00000000       0.00000000       0.00000000       0.00000000       0.00000000    -368.52062988
Bi       0.00000000       0.00000000       1.35575758       0.00000000       0.00000000     368.52062988
2
Properties=species:S:1:pos:R:3:forces:R:3 energy=-63.02591090559074 pbc="F F F"
Bi       0.00000000       0.00000000       0.00000000       0.00000000       0.00000000    -201.03947449
Bi       0.00000000       0.00000000       1.41454545       0.00000000       0.00000000     201.03947449
2
Properties=species:S:1:pos:R:3:forces:R:3 energy=-73.24187968083753 pbc="F F F"
Bi       0.00000000       0.00000000       0.00000000       0.00000000       0.00000000    -167.49456787
Bi       0.00000000       0.00000000       1.47333333       0.00000000       0.00000000     167.49456787
2
Properties=species:S:1:pos:R:3:forces:R:3 energy=-82.00960238577888 pbc="F F F"
Bi       0.00000000       0.00000000       0.00000000       0.00000000       0.00000000    -173.09686279
Bi       0.00000000       0.00000000       1.53212121       0.00000000       0.00000000     173.09686279
2
Properties=species:S:1:pos:R:3:forces:R:3 energy=-91.28126940453755 pbc="F F F"
Bi       0.00000000       0.00000000       0.00000000       0.00000000       0.00000000    -120.44566345
Bi       0.00000000       0.00000000       1.59090909       0.00000000       0.00000000     120.44566345
2
Properties=species:S:1:pos:R:3:forces:R:3 energy=-96.79526878438179 pbc="F F F"
Bi       0.00000000       0.00000000       0.00000000       0.00000000       0.00000000     -74.37904358
Bi       0.00000000       0.00000000       1.64969697       0.00000000       0.00000000      74.37904358
2
Properties=species:S:1:pos:R:3:forces:R:3 energy=-100.2873335440749 pbc="F F F"
Bi       0.00000000       0.00000000       0.00000000       0.00000000       0.00000000     -45.39809418
Bi       0.00000000       0.00000000       1.70848485       0.00000000       0.00000000      45.39809418
2
Properties=species:S:1:pos:R:3:forces:R:3 energy=-102.38162442962762 pbc="F F F"
Bi       0.00000000       0.00000000       0.00000000       0.00000000       0.00000000     -28.74342155
Bi       0.00000000       0.00000000       1.76727273       0.00000000       0.00000000      28.74342155
2
Properties=species:S:1:pos:R:3:forces:R:3 energy=-103.98892329663977 pbc="F F F"
Bi       0.00000000       0.00000000       0.00000000       0.00000000       0.00000000     -27.84123611
Bi       0.00000000       0.00000000       1.82606061       0.00000000       0.00000000      27.84123611
2
Properties=species:S:1:pos:R:3:forces:R:3 energy=-105.71862035479916 pbc="F F F"
Bi       0.00000000       0.00000000       0.00000000       0.00000000       0.00000000     -30.45012283
Bi       0.00000000       0.00000000       1.88484848       0.00000000       0.00000000      30.45012283
2
Properties=species:S:1:pos:R:3:forces:R:3 energy=-107.47428004693538 pbc="F F F"
Bi       0.00000000       0.00000000       0.00000000       0.00000000       0.00000000     -28.62578201
Bi       0.00000000       0.00000000       1.94363636       0.00000000       0.00000000      28.62578201
2
Properties=species:S:1:pos:R:3:forces:R:3 energy=-109.04365258788668 pbc="F F F"
Bi       0.00000000       0.00000000       0.00000000       0.00000000       0.00000000     -24.65757751
Bi       0.00000000       0.00000000       2.00242424       0.00000000       0.00000000      24.65757751
2
Properties=species:S:1:pos:R:3:forces:R:3 energy=-110.37402646153434 pbc="F F F"
Bi       0.00000000       0.00000000       0.00000000       0.00000000       0.00000000     -20.66239357
Bi       0.00000000       0.00000000       2.06121212       0.00000000       0.00000000      20.66239357
2
Properties=species:S:1:pos:R:3:forces:R:3 energy=-111.48129366421674 pbc="F F F"
Bi       0.00000000       0.00000000       0.00000000       0.00000000       0.00000000     -17.07808304
Bi       0.00000000       0.00000000       2.12000000       0.00000000       0.00000000      17.07808304
2
Properties=species:S:1:pos:R:3:forces:R:3 energy=-112.38980717576031 pbc="F F F"
Bi       0.00000000       0.00000000       0.00000000       0.00000000       0.00000000     -13.89341164
Bi       0.00000000       0.00000000       2.17878788       0.00000000       0.00000000      13.89341164
2
Properties=species:S:1:pos:R:3:forces:R:3 energy=-113.12212711104222 pbc="F F F"
Bi       0.00000000       0.00000000       0.00000000       0.00000000       0.00000000     -11.08157063
Bi       0.00000000       0.00000000       2.23757576       0.00000000       0.00000000      11.08157063
2
Properties=species:S:1:pos:R:3:forces:R:3 energy=-113.69966909181268 pbc="F F F"
Bi       0.00000000       0.00000000       0.00000000       0.00000000       0.00000000      -8.62278175
Bi       0.00000000       0.00000000       2.29636364       0.00000000       0.00000000       8.62278175
2
Properties=species:S:1:pos:R:3:forces:R:3 energy=-114.14204065884917 pbc="F F F"
Bi       0.00000000       0.00000000       0.00000000       0.00000000       0.00000000      -6.47398663
Bi       0.00000000       0.00000000       2.35515152       0.00000000       0.00000000       6.47398663
2
Properties=species:S:1:pos:R:3:forces:R:3 energy=-114.4659272092925 pbc="F F F"
Bi       0.00000000       0.00000000       0.00000000       0.00000000       0.00000000      -4.58541489
Bi       0.00000000       0.00000000       2.41393939       0.00000000       0.00000000       4.58541489
2
Properties=species:S:1:pos:R:3:forces:R:3 energy=-114.68583983886985 pbc="F F F"
Bi       0.00000000       0.00000000       0.00000000       0.00000000       0.00000000      -2.93564725
Bi       0.00000000       0.00000000       2.47272727       0.00000000       0.00000000       2.93564725
2
Properties=species:S:1:pos:R:3:forces:R:3 energy=-114.81567924581243 pbc="F F F"
Bi       0.00000000       0.00000000       0.00000000       0.00000000       0.00000000      -1.51941299
Bi       0.00000000       0.00000000       2.53151515       0.00000000       0.00000000       1.51941299
2
Properties=species:S:1:pos:R:3:forces:R:3 energy=-114.86862131211234 pbc="F F F"
Bi       0.00000000       0.00000000       0.00000000       0.00000000       0.00000000      -0.31377870
Bi       0.00000000       0.00000000       2.59030303       0.00000000       0.00000000       0.31377870
2
Properties=species:S:1:pos:R:3:forces:R:3 energy=-114.85611011372733 pbc="F F F"
Bi       0.00000000       0.00000000       0.00000000       0.00000000       0.00000000       0.71041256
Bi       0.00000000       0.00000000       2.64909091       0.00000000       0.00000000      -0.71041256
2
Properties=species:S:1:pos:R:3:forces:R:3 energy=-114.78857497912865 pbc="F F F"
Bi       0.00000000       0.00000000       0.00000000       0.00000000       0.00000000       1.55628419
Bi       0.00000000       0.00000000       2.70787879       0.00000000       0.00000000      -1.55628419
2
Properties=species:S:1:pos:R:3:forces:R:3 energy=-114.67688775750948 pbc="F F F"
Bi       0.00000000       0.00000000       0.00000000       0.00000000       0.00000000       2.21056437
Bi       0.00000000       0.00000000       2.76666667       0.00000000       0.00000000      -2.21056437
2
Properties=species:S:1:pos:R:3:forces:R:3 energy=-114.53248487959391 pbc="F F F"
Bi       0.00000000       0.00000000       0.00000000       0.00000000       0.00000000       2.67028809
Bi       0.00000000       0.00000000       2.82545455       0.00000000       0.00000000      -2.67028809
2
Properties=species:S:1:pos:R:3:forces:R:3 energy=-114.36658917681788 pbc="F F F"
Bi       0.00000000       0.00000000       0.00000000       0.00000000       0.00000000       2.94327497
Bi       0.00000000       0.00000000       2.88424242       0.00000000       0.00000000      -2.94327497
2
Properties=species:S:1:pos:R:3:forces:R:3 energy=-114.1899046564466 pbc="F F F"
Bi       0.00000000       0.00000000       0.00000000       0.00000000       0.00000000       3.03911710
Bi       0.00000000       0.00000000       2.94303030       0.00000000       0.00000000      -3.03911710
2
Properties=species:S:1:pos:R:3:forces:R:3 energy=-114.01238773853196 pbc="F F F"
Bi       0.00000000       0.00000000       0.00000000       0.00000000       0.00000000       2.97630835
Bi       0.00000000       0.00000000       3.00181818       0.00000000       0.00000000      -2.97630835
2
Properties=species:S:1:pos:R:3:forces:R:3 energy=-113.84227053106167 pbc="F F F"
Bi       0.00000000       0.00000000       0.00000000       0.00000000       0.00000000       2.79645276
Bi       0.00000000       0.00000000       3.06060606       0.00000000       0.00000000      -2.79645276
2
Properties=species:S:1:pos:R:3:forces:R:3 energy=-113.68467250348603 pbc="F F F"
Bi       0.00000000       0.00000000       0.00000000       0.00000000       0.00000000       2.56125665
Bi       0.00000000       0.00000000       3.11939394       0.00000000       0.00000000      -2.56125665
2
Properties=species:S:1:pos:R:3:forces:R:3 energy=-113.54107390564782 pbc="F F F"
Bi       0.00000000       0.00000000       0.00000000       0.00000000       0.00000000       2.32793760
Bi       0.00000000       0.00000000       3.17818182       0.00000000       0.00000000      -2.32793760
2
Properties=species:S:1:pos:R:3:forces:R:3 energy=-113.41033840600872 pbc="F F F"
Bi       0.00000000       0.00000000       0.00000000       0.00000000       0.00000000       2.12572694
Bi       0.00000000       0.00000000       3.23696970       0.00000000       0.00000000      -2.12572694
2
Properties=species:S:1:pos:R:3:forces:R:3 energy=-113.29052134051658 pbc="F F F"
Bi       0.00000000       0.00000000       0.00000000       0.00000000       0.00000000       1.95453107
Bi       0.00000000       0.00000000       3.29575758       0.00000000       0.00000000      -1.95453107
2
Properties=species:S:1:pos:R:3:forces:R:3 energy=-113.18018227336766 pbc="F F F"
Bi       0.00000000       0.00000000       0.00000000       0.00000000       0.00000000       1.80120659
Bi       0.00000000       0.00000000       3.35454545       0.00000000       0.00000000      -1.80120659
2
Properties=species:S:1:pos:R:3:forces:R:3 energy=-113.07862173394446 pbc="F F F"
Bi       0.00000000       0.00000000       0.00000000       0.00000000       0.00000000       1.65455556
Bi       0.00000000       0.00000000       3.41333333       0.00000000       0.00000000      -1.65455556
2
Properties=species:S:1:pos:R:3:forces:R:3 energy=-112.98560627509247 pbc="F F F"
Bi       0.00000000       0.00000000       0.00000000       0.00000000       0.00000000       1.50991166
Bi       0.00000000       0.00000000       3.47212121       0.00000000       0.00000000      -1.50991166
2
Properties=species:S:1:pos:R:3:forces:R:3 energy=-112.90105414343003 pbc="F F F"
Bi       0.00000000       0.00000000       0.00000000       0.00000000       0.00000000       1.36732376
Bi       0.00000000       0.00000000       3.53090909       0.00000000       0.00000000      -1.36732376
2
Properties=species:S:1:pos:R:3:forces:R:3 energy=-112.8247579562148 pbc="F F F"
Bi       0.00000000       0.00000000       0.00000000       0.00000000       0.00000000       1.22931159
Bi       0.00000000       0.00000000       3.58969697       0.00000000       0.00000000      -1.22931159
2
Properties=species:S:1:pos:R:3:forces:R:3 energy=-112.75634471149051 pbc="F F F"
Bi       0.00000000       0.00000000       0.00000000       0.00000000       0.00000000       1.09970248
Bi       0.00000000       0.00000000       3.64848485       0.00000000       0.00000000      -1.09970248
2
Properties=species:S:1:pos:R:3:forces:R:3 energy=-112.6952176213938 pbc="F F F"
Bi       0.00000000       0.00000000       0.00000000       0.00000000       0.00000000       0.98243976
Bi       0.00000000       0.00000000       3.70727273       0.00000000       0.00000000      -0.98243976
2
Properties=species:S:1:pos:R:3:forces:R:3 energy=-112.64053842553443 pbc="F F F"
Bi       0.00000000       0.00000000       0.00000000       0.00000000       0.00000000       0.88032228
Bi       0.00000000       0.00000000       3.76606061       0.00000000       0.00000000      -0.88032228
2
Properties=species:S:1:pos:R:3:forces:R:3 energy=-112.5913974987082 pbc="F F F"
Bi       0.00000000       0.00000000       0.00000000       0.00000000       0.00000000       0.79418600
Bi       0.00000000       0.00000000       3.82484848       0.00000000       0.00000000      -0.79418600
2
Properties=species:S:1:pos:R:3:forces:R:3 energy=-112.54687332352478 pbc="F F F"
Bi       0.00000000       0.00000000       0.00000000       0.00000000       0.00000000       0.72280562
Bi       0.00000000       0.00000000       3.88363636       0.00000000       0.00000000      -0.72280562
2
Properties=species:S:1:pos:R:3:forces:R:3 energy=-112.50617496374738 pbc="F F F"
Bi       0.00000000       0.00000000       0.00000000       0.00000000       0.00000000       0.66340137
Bi       0.00000000       0.00000000       3.94242424       0.00000000       0.00000000      -0.66340137
2
Properties=species:S:1:pos:R:3:forces:R:3 energy=-112.46870951635964 pbc="F F F"
Bi       0.00000000       0.00000000       0.00000000       0.00000000       0.00000000       0.61234152
Bi       0.00000000       0.00000000       4.00121212       0.00000000       0.00000000      -0.61234152
2
Properties=species:S:1:pos:R:3:forces:R:3 energy=-112.43408940041923 pbc="F F F"
Bi       0.00000000       0.00000000       0.00000000       0.00000000       0.00000000       0.56581587
Bi       0.00000000       0.00000000       4.06000000       0.00000000       0.00000000      -0.56581587
2
Properties=species:S:1:pos:R:3:forces:R:3 energy=-112.4021629791741 pbc="F F F"
Bi       0.00000000       0.00000000       0.00000000       0.00000000       0.00000000       0.52035451
Bi       0.00000000       0.00000000       4.11878788       0.00000000       0.00000000      -0.52035451
2
Properties=species:S:1:pos:R:3:forces:R:3 energy=-112.37294605707068 pbc="F F F"
Bi       0.00000000       0.00000000       0.00000000       0.00000000       0.00000000       0.47314900
Bi       0.00000000       0.00000000       4.17757576       0.00000000       0.00000000      -0.47314900
2
Properties=species:S:1:pos:R:3:forces:R:3 energy=-112.34660672946274 pbc="F F F"
Bi       0.00000000       0.00000000       0.00000000       0.00000000       0.00000000       0.42226419
Bi       0.00000000       0.00000000       4.23636364       0.00000000       0.00000000      -0.42226419
2
Properties=species:S:1:pos:R:3:forces:R:3 energy=-112.32338929140656 pbc="F F F"
Bi       0.00000000       0.00000000       0.00000000       0.00000000       0.00000000       0.36673817
Bi       0.00000000       0.00000000       4.29515152       0.00000000       0.00000000      -0.36673817
2
Properties=species:S:1:pos:R:3:forces:R:3 energy=-112.30357601070092 pbc="F F F"
Bi       0.00000000       0.00000000       0.00000000       0.00000000       0.00000000       0.30661464
Bi       0.00000000       0.00000000       4.35393939       0.00000000       0.00000000      -0.30661464
2
Properties=species:S:1:pos:R:3:forces:R:3 energy=-112.28741102242715 pbc="F F F"
Bi       0.00000000       0.00000000       0.00000000       0.00000000       0.00000000       0.24287423
Bi       0.00000000       0.00000000       4.41272727       0.00000000       0.00000000      -0.24287423
2
Properties=species:S:1:pos:R:3:forces:R:3 energy=-112.27505444250008 pbc="F F F"
Bi       0.00000000       0.00000000       0.00000000       0.00000000       0.00000000       0.17728452
Bi       0.00000000       0.00000000       4.47151515       0.00000000       0.00000000      -0.17728452
2
Properties=species:S:1:pos:R:3:forces:R:3 energy=-112.26655962995606 pbc="F F F"
Bi       0.00000000       0.00000000       0.00000000       0.00000000       0.00000000       0.11212795
Bi       0.00000000       0.00000000       4.53030303       0.00000000       0.00000000      -0.11212795
2
Properties=species:S:1:pos:R:3:forces:R:3 energy=-112.2618120322114 pbc="F F F"
Bi       0.00000000       0.00000000       0.00000000       0.00000000       0.00000000       0.04988020
Bi       0.00000000       0.00000000       4.58909091       0.00000000       0.00000000      -0.04988020
2
Properties=species:S:1:pos:R:3:forces:R:3 energy=-112.26059035801885 pbc="F F F"
Bi       0.00000000       0.00000000       0.00000000       0.00000000       0.00000000      -0.00712279
Bi       0.00000000       0.00000000       4.64787879       0.00000000       0.00000000       0.00712279
2
Properties=species:S:1:pos:R:3:forces:R:3 energy=-112.26251307746324 pbc="F F F"
Bi       0.00000000       0.00000000       0.00000000       0.00000000       0.00000000      -0.05697960
Bi       0.00000000       0.00000000       4.70666667       0.00000000       0.00000000       0.05697960
2
Properties=species:S:1:pos:R:3:forces:R:3 energy=-112.26712240786576 pbc="F F F"
Bi       0.00000000       0.00000000       0.00000000       0.00000000       0.00000000      -0.09842619
Bi       0.00000000       0.00000000       4.76545455       0.00000000       0.00000000       0.09842619
2
Properties=species:S:1:pos:R:3:forces:R:3 energy=-112.27390715603414 pbc="F F F"
Bi       0.00000000       0.00000000       0.00000000       0.00000000       0.00000000      -0.13097426
Bi       0.00000000       0.00000000       4.82424242       0.00000000       0.00000000       0.13097426
2
Properties=species:S:1:pos:R:3:forces:R:3 energy=-112.28234859283236 pbc="F F F"
Bi       0.00000000       0.00000000       0.00000000       0.00000000       0.00000000      -0.15488178
Bi       0.00000000       0.00000000       4.88303030       0.00000000       0.00000000       0.15488178
2
Properties=species:S:1:pos:R:3:forces:R:3 energy=-112.29196611154642 pbc="F F F"
Bi       0.00000000       0.00000000       0.00000000       0.00000000       0.00000000      -0.17106135
Bi       0.00000000       0.00000000       4.94181818       0.00000000       0.00000000       0.17106135
2
Properties=species:S:1:pos:R:3:forces:R:3 energy=-112.30234019605543 pbc="F F F"
Bi       0.00000000       0.00000000       0.00000000       0.00000000       0.00000000      -0.18080387
Bi       0.00000000       0.00000000       5.00060606       0.00000000       0.00000000       0.18080387
2
Properties=species:S:1:pos:R:3:forces:R:3 energy=-112.31312769150007 pbc="F F F"
Bi       0.00000000       0.00000000       0.00000000       0.00000000       0.00000000      -0.18544790
Bi       0.00000000       0.00000000       5.05939394       0.00000000       0.00000000       0.18544790
2
Properties=species:S:1:pos:R:3:forces:R:3 energy=-112.32406174884565 pbc="F F F"
Bi       0.00000000       0.00000000       0.00000000       0.00000000       0.00000000      -0.18594916
Bi       0.00000000       0.00000000       5.11818182       0.00000000       0.00000000       0.18594916
2
Properties=species:S:1:pos:R:3:forces:R:3 energy=-112.33491371196358 pbc="F F F"
Bi       0.00000000       0.00000000       0.00000000       0.00000000       0.00000000      -0.18246222
Bi       0.00000000       0.00000000       5.17696970       0.00000000       0.00000000       0.18246222
2
Properties=species:S:1:pos:R:3:forces:R:3 energy=-112.34542445466444 pbc="F F F"
Bi       0.00000000       0.00000000       0.00000000       0.00000000       0.00000000      -0.17411171
Bi       0.00000000       0.00000000       5.23575758       0.00000000       0.00000000       0.17411171
2
Properties=species:S:1:pos:R:3:forces:R:3 energy=-112.35525860274693 pbc="F F F"
Bi       0.00000000       0.00000000       0.00000000       0.00000000       0.00000000      -0.15944323
Bi       0.00000000       0.00000000       5.29454545       0.00000000       0.00000000       0.15944323
2
Properties=species:S:1:pos:R:3:forces:R:3 energy=-112.36404265562796 pbc="F F F"
Bi       0.00000000       0.00000000       0.00000000       0.00000000       0.00000000      -0.13868161
Bi       0.00000000       0.00000000       5.35333333       0.00000000       0.00000000       0.13868161
2
Properties=species:S:1:pos:R:3:forces:R:3 energy=-112.3715633862384 pbc="F F F"
Bi       0.00000000       0.00000000       0.00000000       0.00000000       0.00000000      -0.11813279
Bi       0.00000000       0.00000000       5.41212121       0.00000000       0.00000000       0.11813279
2
Properties=species:S:1:pos:R:3:forces:R:3 energy=-112.37816455607556 pbc="F F F"
Bi       0.00000000       0.00000000       0.00000000       0.00000000       0.00000000      -0.10867128
Bi       0.00000000       0.00000000       5.47090909       0.00000000       0.00000000       0.10867128
2
Properties=species:S:1:pos:R:3:forces:R:3 energy=-112.38447985788407 pbc="F F F"
Bi       0.00000000       0.00000000       0.00000000       0.00000000       0.00000000      -0.10546933
Bi       0.00000000       0.00000000       5.52969697       0.00000000       0.00000000       0.10546933
2
Properties=species:S:1:pos:R:3:forces:R:3 energy=-112.39028089054501 pbc="F F F"
Bi       0.00000000       0.00000000       0.00000000       0.00000000       0.00000000      -0.08901978
Bi       0.00000000       0.00000000       5.58848485       0.00000000       0.00000000       0.08901978
2
Properties=species:S:1:pos:R:3:forces:R:3 energy=-112.39475944588159 pbc="F F F"
Bi       0.00000000       0.00000000       0.00000000       0.00000000       0.00000000      -0.06371129
Bi       0.00000000       0.00000000       5.64727273       0.00000000       0.00000000       0.06371129
2
Properties=species:S:1:pos:R:3:forces:R:3 energy=-112.39800761436597 pbc="F F F"
Bi       0.00000000       0.00000000       0.00000000       0.00000000       0.00000000      -0.05006859
Bi       0.00000000       0.00000000       5.70606061       0.00000000       0.00000000       0.05006859
2
Properties=species:S:1:pos:R:3:forces:R:3 energy=-112.40096434688743 pbc="F F F"
Bi       0.00000000       0.00000000       0.00000000       0.00000000       0.00000000      -0.05092551
Bi       0.00000000       0.00000000       5.76484848       0.00000000       0.00000000       0.05092551
2
Properties=species:S:1:pos:R:3:forces:R:3 energy=-112.4038361827557 pbc="F F F"
Bi       0.00000000       0.00000000       0.00000000       0.00000000       0.00000000      -0.04408584
Bi       0.00000000       0.00000000       5.82363636       0.00000000       0.00000000       0.04408584
2
Properties=species:S:1:pos:R:3:forces:R:3 energy=-112.40584547176182 pbc="F F F"
Bi       0.00000000       0.00000000       0.00000000       0.00000000       0.00000000      -0.02345748
Bi       0.00000000       0.00000000       5.88242424       0.00000000       0.00000000       0.02345748
2
Properties=species:S:1:pos:R:3:forces:R:3 energy=-112.40661891606328 pbc="F F F"
Bi       0.00000000       0.00000000       0.00000000       0.00000000       0.00000000      -0.00386426
Bi       0.00000000       0.00000000       5.94121212       0.00000000       0.00000000       0.00386426
2
Properties=species:S:1:pos:R:3:forces:R:3 energy=-112.40654614618337 pbc="F F F"
Bi       0.00000000       0.00000000       0.00000000       0.00000000       0.00000000       0.00369516
Bi       0.00000000       0.00000000       6.00000000       0.00000000       0.00000000      -0.00369516
