2
Properties=species:S:1:pos:R:3:forces:R:3 energy=65518.97180215881 pbc="F F F"
Br       0.00000000       0.00000000       0.00000000       0.00000000       0.00000000 -102319.73437500
Br       0.00000000       0.00000000       0.18000000       0.00000000       0.00000000  102319.73437500
2
Properties=species:S:1:pos:R:3:forces:R:3 energy=60593.82727090881 pbc="F F F"
Br       0.00000000       0.00000000       0.00000000       0.00000000       0.00000000  -79482.31250000
Br       0.00000000       0.00000000       0.23878788       0.00000000       0.00000000   79482.31250000
2
Properties=species:S:1:pos:R:3:forces:R:3 energy=55084.69836465881 pbc="F F F"
Br       0.00000000       0.00000000       0.00000000       0.00000000       0.00000000 -114216.83593750
Br       0.00000000       0.00000000       0.29757576       0.00000000       0.00000000  114216.83593750
2
Properties=species:S:1:pos:R:3:forces:R:3 energy=46680.65148965881 pbc="F F F"
Br       0.00000000       0.00000000       0.00000000       0.00000000       0.00000000 -173433.15625000
Br       0.00000000       0.00000000       0.35636364       0.00000000       0.00000000  173433.15625000
2
Properties=species:S:1:pos:R:3:forces:R:3 energy=34855.7022709104 pbc="F F F"
Br       0.00000000       0.00000000       0.00000000       0.00000000       0.00000000 -223865.96875000
Br       0.00000000       0.00000000       0.41515152       0.00000000       0.00000000  223865.96875000
2
Properties=species:S:1:pos:R:3:forces:R:3 energy=21261.217895911977 pbc="F F F"
Br       0.00000000       0.00000000       0.00000000       0.00000000       0.00000000 -222260.26562500
Br       0.00000000       0.00000000       0.47393939       0.00000000       0.00000000  222260.26562500
2
Properties=species:S:1:pos:R:3:forces:R:3 energy=10754.28918497844 pbc="F F F"
Br       0.00000000       0.00000000       0.00000000       0.00000000       0.00000000 -138071.90625000
Br       0.00000000       0.00000000       0.53272727       0.00000000       0.00000000  138071.90625000
2
Properties=species:S:1:pos:R:3:forces:R:3 energy=4868.262329516025 pbc="F F F"
Br       0.00000000       0.00000000       0.00000000       0.00000000       0.00000000  -75014.96093750
Br       0.00000000       0.00000000       0.59151515       0.00000000       0.00000000   75014.96093750
2
Properties=species:S:1:pos:R:3:forces:R:3 energy=2183.335571714612 pbc="F F F"
Br       0.00000000       0.00000000       0.00000000       0.00000000       0.00000000  -21871.50781250
Br       0.00000000       0.00000000       0.65030303       0.00000000       0.00000000   21871.50781250
2
Properties=species:S:1:pos:R:3:forces:R:3 energy=1221.2910160671804 pbc="F F F"
Br       0.00000000       0.00000000       0.00000000       0.00000000       0.00000000   -9571.34277344
Br       0.00000000       0.00000000       0.70909091       0.00000000       0.00000000    9571.34277344
2
Properties=species:S:1:pos:R:3:forces:R:3 energy=769.5574955831265 pbc="F F F"
Br       0.00000000       0.00000000       0.00000000       0.00000000       0.00000000   -7258.93603516
Br       0.00000000       0.00000000       0.76787879       0.00000000       0.00000000    7258.93603516
2
Properties=species:S:1:pos:R:3:forces:R:3 energy=399.7426152492547 pbc="F F F"
Br       0.00000000       0.00000000       0.00000000       0.00000000       0.00000000   -4992.12207031
Br       0.00000000       0.00000000       0.82666667       0.00000000       0.00000000    4992.12207031
2
Properties=species:S:1:pos:R:3:forces:R:3 energy=237.87521417847688 pbc="F F F"
Br       0.00000000       0.00000000       0.00000000       0.00000000       0.00000000     136.78144836
Br       0.00000000       0.00000000       0.88545455       0.00000000       0.00000000    -136.78144836
2
Properties=species:S:1:pos:R:3:forces:R:3 energy=225.7930609310243 pbc="F F F"
Br       0.00000000       0.00000000       0.00000000       0.00000000       0.00000000    -430.84661865
Br       0.00000000       0.00000000       0.94424242       0.00000000       0.00000000     430.84661865
2
Properties=species:S:1:pos:R:3:forces:R:3 energy=192.53537060191516 pbc="F F F"
Br       0.00000000       0.00000000       0.00000000       0.00000000       0.00000000    -667.62835693
Br       0.00000000       0.00000000       1.00303030       0.00000000       0.00000000     667.62835693
2
Properties=species:S:1:pos:R:3:forces:R:3 energy=151.03924646896948 pbc="F F F"
Br       0.00000000       0.00000000       0.00000000       0.00000000       0.00000000    -718.20648193
Br       0.00000000       0.00000000       1.06181818       0.00000000       0.00000000     718.20648193
2
Properties=species:S:1:pos:R:3:forces:R:3 energy=110.18758496582252 pbc="F F F"
Br       0.00000000       0.00000000       0.00000000       0.00000000       0.00000000    -650.67120361
Br       0.00000000       0.00000000       1.12060606       0.00000000       0.00000000     650.67120361
2
Properties=species:S:1:pos:R:3:forces:R:3 energy=75.65453465996416 pbc="F F F"
Br       0.00000000       0.00000000       0.00000000       0.00000000       0.00000000    -521.13903809
Br       0.00000000       0.00000000       1.17939394       0.00000000       0.00000000     521.13903809
2
Properties=species:S:1:pos:R:3:forces:R:3 energy=48.88871159506554 pbc="F F F"
Br       0.00000000       0.00000000       0.00000000       0.00000000       0.00000000    -392.44122314
Br       0.00000000       0.00000000       1.23818182       0.00000000       0.00000000     392.44122314
2
Properties=species:S:1:pos:R:3:forces:R:3 energy=28.932752655927793 pbc="F F F"
Br       0.00000000       0.00000000       0.00000000       0.00000000       0.00000000    -291.84664917
Br       0.00000000       0.00000000       1.29696970       0.00000000       0.00000000     291.84664917
2
Properties=species:S:1:pos:R:3:forces:R:3 energy=14.14931731352769 pbc="F F F"
Br       0.00000000       0.00000000       0.00000000       0.00000000       0.00000000    -213.31294250
Br       0.00000000       0.00000000       1.35575758       0.00000000       0.00000000     213.31294250
2
Properties=species:S:1:pos:R:3:forces:R:3 energy=3.5624171996025953 pbc="F F F"
Br       0.00000000       0.00000000       0.00000000       0.00000000       0.00000000    -150.11349487
Br       0.00000000       0.00000000       1.41454545       0.00000000       0.00000000     150.11349487
2
Properties=species:S:1:pos:R:3:forces:R:3 energy=-3.9369850613808186 pbc="F F F"
Br       0.00000000       0.00000000       0.00000000       0.00000000       0.00000000    -108.57675171
Br       0.00000000       0.00000000       1.47333333       0.00000000       0.00000000     108.57675171
2
Properties=species:S:1:pos:R:3:forces:R:3 energy=-9.522954081102398 pbc="F F F"
Br       0.00000000       0.00000000       0.00000000       0.00000000       0.00000000     -83.23979950
Br       0.00000000       0.00000000       1.53212121       0.00000000       0.00000000      83.23979950
2
Properties=species:S:1:pos:R:3:forces:R:3 energy=-13.851850455688535 pbc="F F F"
Br       0.00000000       0.00000000       0.00000000       0.00000000       0.00000000     -64.68009186
Br       0.00000000       0.00000000       1.59090909       0.00000000       0.00000000      64.68009186
2
Properties=species:S:1:pos:R:3:forces:R:3 energy=-17.185684727009875 pbc="F F F"
Br       0.00000000       0.00000000       0.00000000       0.00000000       0.00000000     -49.18126297
Br       0.00000000       0.00000000       1.64969697       0.00000000       0.00000000      49.18126297
2
Properties=species:S:1:pos:R:3:forces:R:3 energy=-19.68851363500665 pbc="F F F"
Br       0.00000000       0.00000000       0.00000000       0.00000000       0.00000000     -36.45324326
Br       0.00000000       0.00000000       1.70848485       0.00000000       0.00000000      36.45324326
2
Properties=species:S:1:pos:R:3:forces:R:3 energy=-21.530281900096856 pbc="F F F"
Br       0.00000000       0.00000000       0.00000000       0.00000000       0.00000000     -26.69449043
Br       0.00000000       0.00000000       1.76727273       0.00000000       0.00000000      26.69449043
2
Properties=species:S:1:pos:R:3:forces:R:3 energy=-22.880144601156463 pbc="F F F"
Br       0.00000000       0.00000000       0.00000000       0.00000000       0.00000000     -19.62637329
Br       0.00000000       0.00000000       1.82606061       0.00000000       0.00000000      19.62637329
2
Properties=species:S:1:pos:R:3:forces:R:3 energy=-23.877320962846415 pbc="F F F"
Br       0.00000000       0.00000000       0.00000000       0.00000000       0.00000000     -14.57266331
Br       0.00000000       0.00000000       1.88484848       0.00000000       0.00000000      14.57266331
2
Properties=species:S:1:pos:R:3:forces:R:3 energy=-24.619652194923084 pbc="F F F"
Br       0.00000000       0.00000000       0.00000000       0.00000000       0.00000000     -10.85955334
Br       0.00000000       0.00000000       1.94363636       0.00000000       0.00000000      10.85955334
2
Properties=species:S:1:pos:R:3:forces:R:3 energy=-25.171131680089957 pbc="F F F"
Br       0.00000000       0.00000000       0.00000000       0.00000000       0.00000000      -8.01942730
Br       0.00000000       0.00000000       2.00242424       0.00000000       0.00000000       8.01942730
2
Properties=species:S:1:pos:R:3:forces:R:3 energy=-25.573860267698304 pbc="F F F"
Br       0.00000000       0.00000000       0.00000000       0.00000000       0.00000000      -5.75983715
Br       0.00000000       0.00000000       2.06121212       0.00000000       0.00000000       5.75983715
2
Properties=species:S:1:pos:R:3:forces:R:3 energy=-25.855824394746413 pbc="F F F"
Br       0.00000000       0.00000000       0.00000000       0.00000000       0.00000000      -3.88406348
Br       0.00000000       0.00000000       2.12000000       0.00000000       0.00000000       3.88406348
2
Properties=species:S:1:pos:R:3:forces:R:3 energy=-26.035580574511492 pbc="F F F"
Br       0.00000000       0.00000000       0.00000000       0.00000000       0.00000000      -2.26899076
Br       0.00000000       0.00000000       2.17878788       0.00000000       0.00000000       2.26899076
2
Properties=species:S:1:pos:R:3:forces:R:3 energy=-26.12692456937175 pbc="F F F"
Br       0.00000000       0.00000000       0.00000000       0.00000000       0.00000000      -0.87695938
Br       0.00000000       0.00000000       2.23757576       0.00000000       0.00000000       0.87695938
2
Properties=species:S:1:pos:R:3:forces:R:3 energy=-26.143701702675518 pbc="F F F"
Br       0.00000000       0.00000000       0.00000000       0.00000000       0.00000000       0.25853309
Br       0.00000000       0.00000000       2.29636364       0.00000000       0.00000000      -0.25853309
2
Properties=species:S:1:pos:R:3:forces:R:3 energy=-26.102677451695808 pbc="F F F"
Br       0.00000000       0.00000000       0.00000000       0.00000000       0.00000000       1.08143413
Br       0.00000000       0.00000000       2.35515152       0.00000000       0.00000000      -1.08143413
2
Properties=species:S:1:pos:R:3:forces:R:3 energy=-26.023146437992732 pbc="F F F"
Br       0.00000000       0.00000000       0.00000000       0.00000000       0.00000000       1.57035530
Br       0.00000000       0.00000000       2.41393939       0.00000000       0.00000000      -1.57035530
2
Properties=species:S:1:pos:R:3:forces:R:3 energy=-25.92365938231356 pbc="F F F"
Br       0.00000000       0.00000000       0.00000000       0.00000000       0.00000000       1.77446330
Br       0.00000000       0.00000000       2.47272727       0.00000000       0.00000000      -1.77446330
2
Properties=species:S:1:pos:R:3:forces:R:3 energy=-25.81810159105192 pbc="F F F"
Br       0.00000000       0.00000000       0.00000000       0.00000000       0.00000000       1.79502022
Br       0.00000000       0.00000000       2.53151515       0.00000000       0.00000000      -1.79502022
2
Properties=species:S:1:pos:R:3:forces:R:3 energy=-25.71430063055169 pbc="F F F"
Br       0.00000000       0.00000000       0.00000000       0.00000000       0.00000000       1.72806895
Br       0.00000000       0.00000000       2.59030303       0.00000000       0.00000000      -1.72806895
2
Properties=species:S:1:pos:R:3:forces:R:3 energy=-25.615285089297558 pbc="F F F"
Br       0.00000000       0.00000000       0.00000000       0.00000000       0.00000000       1.64263296
Br       0.00000000       0.00000000       2.64909091       0.00000000       0.00000000      -1.64263296
2
Properties=species:S:1:pos:R:3:forces:R:3 energy=-25.52028783300047 pbc="F F F"
Br       0.00000000       0.00000000       0.00000000       0.00000000       0.00000000       1.60176277
Br       0.00000000       0.00000000       2.70787879       0.00000000       0.00000000      -1.60176277
2
Properties=species:S:1:pos:R:3:forces:R:3 energy=-25.42511593519774 pbc="F F F"
Br       0.00000000       0.00000000       0.00000000       0.00000000       0.00000000       1.65304446
Br       0.00000000       0.00000000       2.76666667       0.00000000       0.00000000      -1.65304446
2
Properties=species:S:1:pos:R:3:forces:R:3 energy=-25.324092243327705 pbc="F F F"
Br       0.00000000       0.00000000       0.00000000       0.00000000       0.00000000       1.79642379
Br       0.00000000       0.00000000       2.82545455       0.00000000       0.00000000      -1.79642379
2
Properties=species:S:1:pos:R:3:forces:R:3 energy=-25.21296969498294 pbc="F F F"
Br       0.00000000       0.00000000       0.00000000       0.00000000       0.00000000       1.98654568
Br       0.00000000       0.00000000       2.88424242       0.00000000       0.00000000      -1.98654568
2
Properties=species:S:1:pos:R:3:forces:R:3 energy=-25.090945869292597 pbc="F F F"
Br       0.00000000       0.00000000       0.00000000       0.00000000       0.00000000       2.15505028
Br       0.00000000       0.00000000       2.94303030       0.00000000       0.00000000      -2.15505028
2
Properties=species:S:1:pos:R:3:forces:R:3 energy=-24.961356464005775 pbc="F F F"
Br       0.00000000       0.00000000       0.00000000       0.00000000       0.00000000       2.23449564
Br       0.00000000       0.00000000       3.00181818       0.00000000       0.00000000      -2.23449564
2
Properties=species:S:1:pos:R:3:forces:R:3 energy=-24.83064082637937 pbc="F F F"
Br       0.00000000       0.00000000       0.00000000       0.00000000       0.00000000       2.19254208
Br       0.00000000       0.00000000       3.06060606       0.00000000       0.00000000      -2.19254208
2
Properties=species:S:1:pos:R:3:forces:R:3 energy=-24.70556947242052 pbc="F F F"
Br       0.00000000       0.00000000       0.00000000       0.00000000       0.00000000       2.04948139
Br       0.00000000       0.00000000       3.11939394       0.00000000       0.00000000      -2.04948139
2
Properties=species:S:1:pos:R:3:forces:R:3 energy=-24.590668388059736 pbc="F F F"
Br       0.00000000       0.00000000       0.00000000       0.00000000       0.00000000       1.85521770
Br       0.00000000       0.00000000       3.17818182       0.00000000       0.00000000      -1.85521770
2
Properties=species:S:1:pos:R:3:forces:R:3 energy=-24.48756799524634 pbc="F F F"
Br       0.00000000       0.00000000       0.00000000       0.00000000       0.00000000       1.65364897
Br       0.00000000       0.00000000       3.23696970       0.00000000       0.00000000      -1.65364897
2
Properties=species:S:1:pos:R:3:forces:R:3 energy=-24.3959351671963 pbc="F F F"
Br       0.00000000       0.00000000       0.00000000       0.00000000       0.00000000       1.46699214
Br       0.00000000       0.00000000       3.29575758       0.00000000       0.00000000      -1.46699214
2
Properties=species:S:1:pos:R:3:forces:R:3 energy=-24.3146948596891 pbc="F F F"
Br       0.00000000       0.00000000       0.00000000       0.00000000       0.00000000       1.30004275
Br       0.00000000       0.00000000       3.35454545       0.00000000       0.00000000      -1.30004275
2
Properties=species:S:1:pos:R:3:forces:R:3 energy=-24.242753285263365 pbc="F F F"
Br       0.00000000       0.00000000       0.00000000       0.00000000       0.00000000       1.14987016
Br       0.00000000       0.00000000       3.41333333       0.00000000       0.00000000      -1.14987016
2
Properties=species:S:1:pos:R:3:forces:R:3 energy=-24.179249603248863 pbc="F F F"
Br       0.00000000       0.00000000       0.00000000       0.00000000       0.00000000       1.01239371
Br       0.00000000       0.00000000       3.47212121       0.00000000       0.00000000      -1.01239371
2
Properties=species:S:1:pos:R:3:forces:R:3 energy=-24.123525343583687 pbc="F F F"
Br       0.00000000       0.00000000       0.00000000       0.00000000       0.00000000       0.88493919
Br       0.00000000       0.00000000       3.53090909       0.00000000       0.00000000      -0.88493919
2
Properties=species:S:1:pos:R:3:forces:R:3 energy=-24.075025124898936 pbc="F F F"
Br       0.00000000       0.00000000       0.00000000       0.00000000       0.00000000       0.76651937
Br       0.00000000       0.00000000       3.58969697       0.00000000       0.00000000      -0.76651937
2
Properties=species:S:1:pos:R:3:forces:R:3 energy=-24.033220324143464 pbc="F F F"
Br       0.00000000       0.00000000       0.00000000       0.00000000       0.00000000       0.65734017
Br       0.00000000       0.00000000       3.64848485       0.00000000       0.00000000      -0.65734017
2
Properties=species:S:1:pos:R:3:forces:R:3 energy=-23.997542355019718 pbc="F F F"
Br       0.00000000       0.00000000       0.00000000       0.00000000       0.00000000       0.55818456
Br       0.00000000       0.00000000       3.70727273       0.00000000       0.00000000      -0.55818456
2
Properties=species:S:1:pos:R:3:forces:R:3 energy=-23.967378759043772 pbc="F F F"
Br       0.00000000       0.00000000       0.00000000       0.00000000       0.00000000       0.46988696
Br       0.00000000       0.00000000       3.76606061       0.00000000       0.00000000      -0.46988696
2
Properties=species:S:1:pos:R:3:forces:R:3 energy=-23.942073283156965 pbc="F F F"
Br       0.00000000       0.00000000       0.00000000       0.00000000       0.00000000       0.39292744
Br       0.00000000       0.00000000       3.82484848       0.00000000       0.00000000      -0.39292744
2
Properties=species:S:1:pos:R:3:forces:R:3 energy=-23.920958235752522 pbc="F F F"
Br       0.00000000       0.00000000       0.00000000       0.00000000       0.00000000       0.32715964
Br       0.00000000       0.00000000       3.88363636       0.00000000       0.00000000      -0.32715964
2
Properties=species:S:1:pos:R:3:forces:R:3 energy=-23.90340412604931 pbc="F F F"
Br       0.00000000       0.00000000       0.00000000       0.00000000       0.00000000       0.27171445
Br       0.00000000       0.00000000       3.94242424       0.00000000       0.00000000      -0.27171445
2
Properties=species:S:1:pos:R:3:forces:R:3 energy=-23.888840642550917 pbc="F F F"
Br       0.00000000       0.00000000       0.00000000       0.00000000       0.00000000       0.22507003
Br       0.00000000       0.00000000       4.00121212       0.00000000       0.00000000      -0.22507003
2
Properties=species:S:1:pos:R:3:forces:R:3 energy=-23.87680621718362 pbc="F F F"
Br       0.00000000       0.00000000       0.00000000       0.00000000       0.00000000       0.18525580
Br       0.00000000       0.00000000       4.06000000       0.00000000       0.00000000      -0.18525580
2
Properties=species:S:1:pos:R:3:forces:R:3 energy=-23.86696522944796 pbc="F F F"
Br       0.00000000       0.00000000       0.00000000       0.00000000       0.00000000       0.15017499
Br       0.00000000       0.00000000       4.11878788       0.00000000       0.00000000      -0.15017499
2
Properties=species:S:1:pos:R:3:forces:R:3 energy=-23.859094615380513 pbc="F F F"
Br       0.00000000       0.00000000       0.00000000       0.00000000       0.00000000       0.11795324
Br       0.00000000       0.00000000       4.17757576       0.00000000       0.00000000      -0.11795324
2
Properties=species:S:1:pos:R:3:forces:R:3 energy=-23.8530667639807 pbc="F F F"
Br       0.00000000       0.00000000       0.00000000       0.00000000       0.00000000       0.08725969
Br       0.00000000       0.00000000       4.23636364       0.00000000       0.00000000      -0.08725969
2
Properties=species:S:1:pos:R:3:forces:R:3 energy=-23.848817031303447 pbc="F F F"
Br       0.00000000       0.00000000       0.00000000       0.00000000       0.00000000       0.05749476
Br       0.00000000       0.00000000       4.29515152       0.00000000       0.00000000      -0.05749476
2
Properties=species:S:1:pos:R:3:forces:R:3 energy=-23.846286559597974 pbc="F F F"
Br       0.00000000       0.00000000       0.00000000       0.00000000       0.00000000       0.02881002
Br       0.00000000       0.00000000       4.35393939       0.00000000       0.00000000      -0.02881002
2
Properties=species:S:1:pos:R:3:forces:R:3 energy=-23.845393647279415 pbc="F F F"
Br       0.00000000       0.00000000       0.00000000       0.00000000       0.00000000       0.00194026
Br       0.00000000       0.00000000       4.41272727       0.00000000       0.00000000      -0.00194026
2
Properties=species:S:1:pos:R:3:forces:R:3 energy=-23.84600133310956 pbc="F F F"
Br       0.00000000       0.00000000       0.00000000       0.00000000       0.00000000      -0.02205443
Br       0.00000000       0.00000000       4.47151515       0.00000000       0.00000000       0.02205443
2
Properties=species:S:1:pos:R:3:forces:R:3 energy=-23.847909762446548 pbc="F F F"
Br       0.00000000       0.00000000       0.00000000       0.00000000       0.00000000      -0.04207836
Br       0.00000000       0.00000000       4.53030303       0.00000000       0.00000000       0.04207836
2
Properties=species:S:1:pos:R:3:forces:R:3 energy=-23.850854262473234 pbc="F F F"
Br       0.00000000       0.00000000       0.00000000       0.00000000       0.00000000      -0.05722649
Br       0.00000000       0.00000000       4.58909091       0.00000000       0.00000000       0.05722649
2
Properties=species:S:1:pos:R:3:forces:R:3 energy=-23.854532060917144 pbc="F F F"
Br       0.00000000       0.00000000       0.00000000       0.00000000       0.00000000      -0.06694141
Br       0.00000000       0.00000000       4.64787879       0.00000000       0.00000000       0.06694141
2
Properties=species:S:1:pos:R:3:forces:R:3 energy=-23.858615607792576 pbc="F F F"
Br       0.00000000       0.00000000       0.00000000       0.00000000       0.00000000      -0.07111053
Br       0.00000000       0.00000000       4.70666667       0.00000000       0.00000000       0.07111053
2
Properties=species:S:1:pos:R:3:forces:R:3 energy=-23.862790740984213 pbc="F F F"
Br       0.00000000       0.00000000       0.00000000       0.00000000       0.00000000      -0.07012415
Br       0.00000000       0.00000000       4.76545455       0.00000000       0.00000000       0.07012415
2
Properties=species:S:1:pos:R:3:forces:R:3 energy=-23.866777631048112 pbc="F F F"
Br       0.00000000       0.00000000       0.00000000       0.00000000       0.00000000      -0.06488891
Br       0.00000000       0.00000000       4.82424242       0.00000000       0.00000000       0.06488891
2
Properties=species:S:1:pos:R:3:forces:R:3 energy=-23.870363228709184 pbc="F F F"
Br       0.00000000       0.00000000       0.00000000       0.00000000       0.00000000      -0.05673961
Br       0.00000000       0.00000000       4.88303030       0.00000000       0.00000000       0.05673961
2
Properties=species:S:1:pos:R:3:forces:R:3 energy=-23.87342220847425 pbc="F F F"
Br       0.00000000       0.00000000       0.00000000       0.00000000       0.00000000      -0.04724578
Br       0.00000000       0.00000000       4.94181818       0.00000000       0.00000000       0.04724578
2
Properties=species:S:1:pos:R:3:forces:R:3 energy=-23.87592079996037 pbc="F F F"
Br       0.00000000       0.00000000       0.00000000       0.00000000       0.00000000      -0.03793073
Br       0.00000000       0.00000000       5.00060606       0.00000000       0.00000000       0.03793073
2
Properties=species:S:1:pos:R:3:forces:R:3 energy=-23.877907229372905 pbc="F F F"
Br       0.00000000       0.00000000       0.00000000       0.00000000       0.00000000      -0.02994321
Br       0.00000000       0.00000000       5.05939394       0.00000000       0.00000000       0.02994321
2
Properties=species:S:1:pos:R:3:forces:R:3 energy=-23.879477381290467 pbc="F F F"
Br       0.00000000       0.00000000       0.00000000       0.00000000       0.00000000      -0.02375074
Br       0.00000000       0.00000000       5.11818182       0.00000000       0.00000000       0.02375074
2
Properties=species:S:1:pos:R:3:forces:R:3 energy=-23.88072710702953 pbc="F F F"
Br       0.00000000       0.00000000       0.00000000       0.00000000       0.00000000      -0.01884956
Br       0.00000000       0.00000000       5.17696970       0.00000000       0.00000000       0.01884956
2
Properties=species:S:1:pos:R:3:forces:R:3 energy=-23.881687385482312 pbc="F F F"
Br       0.00000000       0.00000000       0.00000000       0.00000000       0.00000000      -0.01356320
Br       0.00000000       0.00000000       5.23575758       0.00000000       0.00000000       0.01356320
2
Properties=species:S:1:pos:R:3:forces:R:3 energy=-23.88226326182602 pbc="F F F"
Br       0.00000000       0.00000000       0.00000000       0.00000000       0.00000000      -0.00532377
Br       0.00000000       0.00000000       5.29454545       0.00000000       0.00000000       0.00532377
2
Properties=species:S:1:pos:R:3:forces:R:3 energy=-23.882226229215647 pbc="F F F"
Br       0.00000000       0.00000000       0.00000000       0.00000000       0.00000000       0.00708076
Br       0.00000000       0.00000000       5.35333333       0.00000000       0.00000000      -0.00708076
2
Properties=species:S:1:pos:R:3:forces:R:3 energy=-23.88145645770464 pbc="F F F"
Br       0.00000000       0.00000000       0.00000000       0.00000000       0.00000000       0.01780081
Br       0.00000000       0.00000000       5.41212121       0.00000000       0.00000000      -0.01780081
2
Properties=species:S:1:pos:R:3:forces:R:3 energy=-23.88043869696984 pbc="F F F"
Br       0.00000000       0.00000000       0.00000000       0.00000000       0.00000000       0.01353396
Br       0.00000000       0.00000000       5.47090909       0.00000000       0.00000000      -0.01353396
2
Properties=species:S:1:pos:R:3:forces:R:3 energy=-23.880119236647374 pbc="F F F"
Br       0.00000000       0.00000000       0.00000000       0.00000000       0.00000000      -0.00262888
Br       0.00000000       0.00000000       5.52969697       0.00000000       0.00000000       0.00262888
2
Properties=species:S:1:pos:R:3:forces:R:3 energy=-23.880496366585543 pbc="F F F"
Br       0.00000000       0.00000000       0.00000000       0.00000000       0.00000000      -0.00729234
Br       0.00000000       0.00000000       5.58848485       0.00000000       0.00000000       0.00729234
2
Properties=species:S:1:pos:R:3:forces:R:3 energy=-23.880792045349352 pbc="F F F"
Br       0.00000000       0.00000000       0.00000000       0.00000000       0.00000000      -0.00320585
Br       0.00000000       0.00000000       5.64727273       0.00000000       0.00000000       0.00320585
2
Properties=species:S:1:pos:R:3:forces:R:3 energy=-23.88114562382658 pbc="F F F"
Br       0.00000000       0.00000000       0.00000000       0.00000000       0.00000000      -0.01227188
Br       0.00000000       0.00000000       5.70606061       0.00000000       0.00000000       0.01227188
2
Properties=species:S:1:pos:R:3:forces:R:3 energy=-23.88256426267682 pbc="F F F"
Br       0.00000000       0.00000000       0.00000000       0.00000000       0.00000000      -0.03648175
Br       0.00000000       0.00000000       5.76484848       0.00000000       0.00000000       0.03648175
2
Properties=species:S:1:pos:R:3:forces:R:3 energy=-23.885133837532027 pbc="F F F"
Br       0.00000000       0.00000000       0.00000000       0.00000000       0.00000000      -0.04622000
Br       0.00000000       0.00000000       5.82363636       0.00000000       0.00000000       0.04622000
2
Properties=species:S:1:pos:R:3:forces:R:3 energy=-23.88744101453864 pbc="F F F"
Br       0.00000000       0.00000000       0.00000000       0.00000000       0.00000000      -0.02950775
Br       0.00000000       0.00000000       5.88242424       0.00000000       0.00000000       0.02950775
2
Properties=species:S:1:pos:R:3:forces:R:3 energy=-23.888499681188247 pbc="F F F"
Br       0.00000000       0.00000000       0.00000000       0.00000000       0.00000000      -0.00733534
Br       0.00000000       0.00000000       5.94121212       0.00000000       0.00000000       0.00733534
2
Properties=species:S:1:pos:R:3:forces:R:3 energy=-23.88857301080646 pbc="F F F"
Br       0.00000000       0.00000000       0.00000000       0.00000000       0.00000000       0.00179626
Br       0.00000000       0.00000000       6.00000000       0.00000000       0.00000000      -0.00179626
