2
Properties=species:S:1:pos:R:3:forces:R:3 energy=47270.9018260132 pbc="F F F"
Ca       0.00000000       0.00000000       0.00000000       0.00000000       0.00000000  -41842.28515625
Ca       0.00000000       0.00000000       0.18000000       0.00000000       0.00000000   41842.28515625
2
Properties=species:S:1:pos:R:3:forces:R:3 energy=45257.6830760132 pbc="F F F"
Ca       0.00000000       0.00000000       0.00000000       0.00000000       0.00000000  -32275.22265625
Ca       0.00000000       0.00000000       0.23878788       0.00000000       0.00000000   32275.22265625
2
Properties=species:S:1:pos:R:3:forces:R:3 energy=43023.5385447632 pbc="F F F"
Ca       0.00000000       0.00000000       0.00000000       0.00000000       0.00000000  -46643.70312500
Ca       0.00000000       0.00000000       0.29757576       0.00000000       0.00000000   46643.70312500
2
Properties=species:S:1:pos:R:3:forces:R:3 energy=39491.5385447632 pbc="F F F"
Ca       0.00000000       0.00000000       0.00000000       0.00000000       0.00000000  -75432.00000000
Ca       0.00000000       0.00000000       0.35636364       0.00000000       0.00000000   75432.00000000
2
Properties=species:S:1:pos:R:3:forces:R:3 energy=34005.007294766365 pbc="F F F"
Ca       0.00000000       0.00000000       0.00000000       0.00000000       0.00000000 -111673.32031250
Ca       0.00000000       0.00000000       0.41515152       0.00000000       0.00000000  111673.32031250
2
Properties=species:S:1:pos:R:3:forces:R:3 energy=26582.647919766365 pbc="F F F"
Ca       0.00000000       0.00000000       0.00000000       0.00000000       0.00000000 -140609.40625000
Ca       0.00000000       0.00000000       0.47393939       0.00000000       0.00000000  140609.40625000
2
Properties=species:S:1:pos:R:3:forces:R:3 energy=17862.886201019533 pbc="F F F"
Ca       0.00000000       0.00000000       0.00000000       0.00000000       0.00000000 -151196.37500000
Ca       0.00000000       0.00000000       0.53272727       0.00000000       0.00000000  151196.37500000
2
Properties=species:S:1:pos:R:3:forces:R:3 energy=9475.4779978977 pbc="F F F"
Ca       0.00000000       0.00000000       0.00000000       0.00000000       0.00000000 -128260.10937500
Ca       0.00000000       0.00000000       0.59151515       0.00000000       0.00000000  128260.10937500
2
Properties=species:S:1:pos:R:3:forces:R:3 energy=3348.519501813453 pbc="F F F"
Ca       0.00000000       0.00000000       0.00000000       0.00000000       0.00000000  -77321.16406250
Ca       0.00000000       0.00000000       0.65030303       0.00000000       0.00000000   77321.16406250
2
Properties=species:S:1:pos:R:3:forces:R:3 energy=421.19439806635893 pbc="F F F"
Ca       0.00000000       0.00000000       0.00000000       0.00000000       0.00000000  -25020.40039062
Ca       0.00000000       0.00000000       0.70909091       0.00000000       0.00000000   25020.40039062
2
Properties=species:S:1:pos:R:3:forces:R:3 energy=20.410279436189928 pbc="F F F"
Ca       0.00000000       0.00000000       0.00000000       0.00000000       0.00000000    -441.96636963
Ca       0.00000000       0.00000000       0.76787879       0.00000000       0.00000000     441.96636963
2
Properties=species:S:1:pos:R:3:forces:R:3 energy=15.026093673684702 pbc="F F F"
Ca       0.00000000       0.00000000       0.00000000       0.00000000       0.00000000     140.69168091
Ca       0.00000000       0.00000000       0.82666667       0.00000000       0.00000000    -140.69168091
2
Properties=species:S:1:pos:R:3:forces:R:3 energy=27.113845103416192 pbc="F F F"
Ca       0.00000000       0.00000000       0.00000000       0.00000000       0.00000000     225.60121155
Ca       0.00000000       0.00000000       0.88545455       0.00000000       0.00000000    -225.60121155
2
Properties=species:S:1:pos:R:3:forces:R:3 energy=27.792979529333476 pbc="F F F"
Ca       0.00000000       0.00000000       0.00000000       0.00000000       0.00000000    -102.57532501
Ca       0.00000000       0.00000000       0.94424242       0.00000000       0.00000000     102.57532501
2
Properties=species:S:1:pos:R:3:forces:R:3 energy=22.509017361940995 pbc="F F F"
Ca       0.00000000       0.00000000       0.00000000       0.00000000       0.00000000     -82.57701111
Ca       0.00000000       0.00000000       1.00303030       0.00000000       0.00000000      82.57701111
2
Properties=species:S:1:pos:R:3:forces:R:3 energy=18.08657408292219 pbc="F F F"
Ca       0.00000000       0.00000000       0.00000000       0.00000000       0.00000000     -69.13545990
Ca       0.00000000       0.00000000       1.06181818       0.00000000       0.00000000      69.13545990
2
Properties=species:S:1:pos:R:3:forces:R:3 energy=14.360397009898016 pbc="F F F"
Ca       0.00000000       0.00000000       0.00000000       0.00000000       0.00000000     -56.92133713
Ca       0.00000000       0.00000000       1.12060606       0.00000000       0.00000000      56.92133713
2
Properties=species:S:1:pos:R:3:forces:R:3 energy=11.364789823868712 pbc="F F F"
Ca       0.00000000       0.00000000       0.00000000       0.00000000       0.00000000     -46.29721451
Ca       0.00000000       0.00000000       1.17939394       0.00000000       0.00000000      46.29721451
2
Properties=species:S:1:pos:R:3:forces:R:3 energy=8.767744166185695 pbc="F F F"
Ca       0.00000000       0.00000000       0.00000000       0.00000000       0.00000000     -42.82677841
Ca       0.00000000       0.00000000       1.23818182       0.00000000       0.00000000      42.82677841
2
Properties=species:S:1:pos:R:3:forces:R:3 energy=6.289265088088467 pbc="F F F"
Ca       0.00000000       0.00000000       0.00000000       0.00000000       0.00000000     -41.58529663
Ca       0.00000000       0.00000000       1.29696970       0.00000000       0.00000000      41.58529663
2
Properties=species:S:1:pos:R:3:forces:R:3 energy=3.8813141195822998 pbc="F F F"
Ca       0.00000000       0.00000000       0.00000000       0.00000000       0.00000000     -40.21003723
Ca       0.00000000       0.00000000       1.35575758       0.00000000       0.00000000      40.21003723
2
Properties=species:S:1:pos:R:3:forces:R:3 energy=1.5856202530627996 pbc="F F F"
Ca       0.00000000       0.00000000       0.00000000       0.00000000       0.00000000     -37.62852097
Ca       0.00000000       0.00000000       1.41454545       0.00000000       0.00000000      37.62852097
2
Properties=species:S:1:pos:R:3:forces:R:3 energy=-0.511257199976627 pbc="F F F"
Ca       0.00000000       0.00000000       0.00000000       0.00000000       0.00000000     -33.46719742
Ca       0.00000000       0.00000000       1.47333333       0.00000000       0.00000000      33.46719742
2
Properties=species:S:1:pos:R:3:forces:R:3 energy=-2.3274133323759707 pbc="F F F"
Ca       0.00000000       0.00000000       0.00000000       0.00000000       0.00000000     -28.19204330
Ca       0.00000000       0.00000000       1.53212121       0.00000000       0.00000000      28.19204330
2
Properties=species:S:1:pos:R:3:forces:R:3 energy=-3.8175471550840605 pbc="F F F"
Ca       0.00000000       0.00000000       0.00000000       0.00000000       0.00000000     -22.48710823
Ca       0.00000000       0.00000000       1.59090909       0.00000000       0.00000000      22.48710823
2
Properties=species:S:1:pos:R:3:forces:R:3 energy=-4.9759814195527525 pbc="F F F"
Ca       0.00000000       0.00000000       0.00000000       0.00000000       0.00000000     -17.01460648
Ca       0.00000000       0.00000000       1.64969697       0.00000000       0.00000000      17.01460648
2
Properties=species:S:1:pos:R:3:forces:R:3 energy=-5.833549341595379 pbc="F F F"
Ca       0.00000000       0.00000000       0.00000000       0.00000000       0.00000000     -12.32404613
Ca       0.00000000       0.00000000       1.70848485       0.00000000       0.00000000      12.32404613
2
Properties=species:S:1:pos:R:3:forces:R:3 energy=-6.446122849866872 pbc="F F F"
Ca       0.00000000       0.00000000       0.00000000       0.00000000       0.00000000      -8.69935799
Ca       0.00000000       0.00000000       1.76727273       0.00000000       0.00000000       8.69935799
2
Properties=species:S:1:pos:R:3:forces:R:3 energy=-6.8764551005487276 pbc="F F F"
Ca       0.00000000       0.00000000       0.00000000       0.00000000       0.00000000      -6.09308910
Ca       0.00000000       0.00000000       1.82606061       0.00000000       0.00000000       6.09308910
2
Properties=species:S:1:pos:R:3:forces:R:3 energy=-7.178076751849101 pbc="F F F"
Ca       0.00000000       0.00000000       0.00000000       0.00000000       0.00000000      -4.28256130
Ca       0.00000000       0.00000000       1.88484848       0.00000000       0.00000000       4.28256130
2
Properties=species:S:1:pos:R:3:forces:R:3 energy=-7.3916743604436785 pbc="F F F"
Ca       0.00000000       0.00000000       0.00000000       0.00000000       0.00000000      -3.07021856
Ca       0.00000000       0.00000000       1.94363636       0.00000000       0.00000000       3.07021856
2
Properties=species:S:1:pos:R:3:forces:R:3 energy=-7.547800262884853 pbc="F F F"
Ca       0.00000000       0.00000000       0.00000000       0.00000000       0.00000000      -2.30505204
Ca       0.00000000       0.00000000       2.00242424       0.00000000       0.00000000       2.30505204
2
Properties=species:S:1:pos:R:3:forces:R:3 energy=-7.66918330946345 pbc="F F F"
Ca       0.00000000       0.00000000       0.00000000       0.00000000       0.00000000      -1.87269592
Ca       0.00000000       0.00000000       2.06121212       0.00000000       0.00000000       1.87269592
2
Properties=species:S:1:pos:R:3:forces:R:3 energy=-7.773081146259644 pbc="F F F"
Ca       0.00000000       0.00000000       0.00000000       0.00000000       0.00000000      -1.70134270
Ca       0.00000000       0.00000000       2.12000000       0.00000000       0.00000000       1.70134270
2
Properties=species:S:1:pos:R:3:forces:R:3 energy=-7.873410657041555 pbc="F F F"
Ca       0.00000000       0.00000000       0.00000000       0.00000000       0.00000000      -1.74352002
Ca       0.00000000       0.00000000       2.17878788       0.00000000       0.00000000       1.74352002
2
Properties=species:S:1:pos:R:3:forces:R:3 energy=-7.98119958507486 pbc="F F F"
Ca       0.00000000       0.00000000       0.00000000       0.00000000       0.00000000      -1.94424367
Ca       0.00000000       0.00000000       2.23757576       0.00000000       0.00000000       1.94424367
2
Properties=species:S:1:pos:R:3:forces:R:3 energy=-8.103670506767129 pbc="F F F"
Ca       0.00000000       0.00000000       0.00000000       0.00000000       0.00000000      -2.22971988
Ca       0.00000000       0.00000000       2.29636364       0.00000000       0.00000000       2.22971988
2
Properties=species:S:1:pos:R:3:forces:R:3 energy=-8.243495993019781 pbc="F F F"
Ca       0.00000000       0.00000000       0.00000000       0.00000000       0.00000000      -2.52275872
Ca       0.00000000       0.00000000       2.35515152       0.00000000       0.00000000       2.52275872
2
Properties=species:S:1:pos:R:3:forces:R:3 energy=-8.399250695203573 pbc="F F F"
Ca       0.00000000       0.00000000       0.00000000       0.00000000       0.00000000      -2.76395750
Ca       0.00000000       0.00000000       2.41393939       0.00000000       0.00000000       2.76395750
2
Properties=species:S:1:pos:R:3:forces:R:3 energy=-8.566811803220949 pbc="F F F"
Ca       0.00000000       0.00000000       0.00000000       0.00000000       0.00000000      -2.92133951
Ca       0.00000000       0.00000000       2.47272727       0.00000000       0.00000000       2.92133951
2
Properties=species:S:1:pos:R:3:forces:R:3 energy=-8.740927328073328 pbc="F F F"
Ca       0.00000000       0.00000000       0.00000000       0.00000000       0.00000000      -2.98730731
Ca       0.00000000       0.00000000       2.53151515       0.00000000       0.00000000       2.98730731
2
Properties=species:S:1:pos:R:3:forces:R:3 energy=-8.916405409761396 pbc="F F F"
Ca       0.00000000       0.00000000       0.00000000       0.00000000       0.00000000      -2.96978641
Ca       0.00000000       0.00000000       2.59030303       0.00000000       0.00000000       2.96978641
2
Properties=species:S:1:pos:R:3:forces:R:3 energy=-9.088761808292968 pbc="F F F"
Ca       0.00000000       0.00000000       0.00000000       0.00000000       0.00000000      -2.88384342
Ca       0.00000000       0.00000000       2.64909091       0.00000000       0.00000000       2.88384342
2
Properties=species:S:1:pos:R:3:forces:R:3 energy=-9.254470789720289 pbc="F F F"
Ca       0.00000000       0.00000000       0.00000000       0.00000000       0.00000000      -2.74656725
Ca       0.00000000       0.00000000       2.70787879       0.00000000       0.00000000       2.74656725
2
Properties=species:S:1:pos:R:3:forces:R:3 energy=-9.411012784513282 pbc="F F F"
Ca       0.00000000       0.00000000       0.00000000       0.00000000       0.00000000      -2.57468200
Ca       0.00000000       0.00000000       2.76666667       0.00000000       0.00000000       2.57468200
2
Properties=species:S:1:pos:R:3:forces:R:3 energy=-9.556808637884684 pbc="F F F"
Ca       0.00000000       0.00000000       0.00000000       0.00000000       0.00000000      -2.38324022
Ca       0.00000000       0.00000000       2.82545455       0.00000000       0.00000000       2.38324022
2
Properties=species:S:1:pos:R:3:forces:R:3 energy=-9.691082306031069 pbc="F F F"
Ca       0.00000000       0.00000000       0.00000000       0.00000000       0.00000000      -2.18434405
Ca       0.00000000       0.00000000       2.88424242       0.00000000       0.00000000       2.18434405
2
Properties=species:S:1:pos:R:3:forces:R:3 energy=-9.813650154297536 pbc="F F F"
Ca       0.00000000       0.00000000       0.00000000       0.00000000       0.00000000      -1.98599815
Ca       0.00000000       0.00000000       2.94303030       0.00000000       0.00000000       1.98599815
2
Properties=species:S:1:pos:R:3:forces:R:3 energy=-9.924671100842465 pbc="F F F"
Ca       0.00000000       0.00000000       0.00000000       0.00000000       0.00000000      -1.79177511
Ca       0.00000000       0.00000000       3.00181818       0.00000000       0.00000000       1.79177511
2
Properties=species:S:1:pos:R:3:forces:R:3 energy=-10.024401668058006 pbc="F F F"
Ca       0.00000000       0.00000000       0.00000000       0.00000000       0.00000000      -1.60176110
Ca       0.00000000       0.00000000       3.06060606       0.00000000       0.00000000       1.60176110
2
Properties=species:S:1:pos:R:3:forces:R:3 energy=-10.113047095335132 pbc="F F F"
Ca       0.00000000       0.00000000       0.00000000       0.00000000       0.00000000      -1.41426826
Ca       0.00000000       0.00000000       3.11939394       0.00000000       0.00000000       1.41426826
2
Properties=species:S:1:pos:R:3:forces:R:3 energy=-10.190698735515722 pbc="F F F"
Ca       0.00000000       0.00000000       0.00000000       0.00000000       0.00000000      -1.22744739
Ca       0.00000000       0.00000000       3.17818182       0.00000000       0.00000000       1.22744739
2
Properties=species:S:1:pos:R:3:forces:R:3 energy=-10.257357554625685 pbc="F F F"
Ca       0.00000000       0.00000000       0.00000000       0.00000000       0.00000000      -1.04023814
Ca       0.00000000       0.00000000       3.23696970       0.00000000       0.00000000       1.04023814
2
Properties=species:S:1:pos:R:3:forces:R:3 energy=-10.313002188044027 pbc="F F F"
Ca       0.00000000       0.00000000       0.00000000       0.00000000       0.00000000      -0.85294670
Ca       0.00000000       0.00000000       3.29575758       0.00000000       0.00000000       0.85294670
2
Properties=species:S:1:pos:R:3:forces:R:3 energy=-10.35768294561113 pbc="F F F"
Ca       0.00000000       0.00000000       0.00000000       0.00000000       0.00000000      -0.66774762
Ca       0.00000000       0.00000000       3.35454545       0.00000000       0.00000000       0.66774762
2
Properties=species:S:1:pos:R:3:forces:R:3 energy=-10.391636433112577 pbc="F F F"
Ca       0.00000000       0.00000000       0.00000000       0.00000000       0.00000000      -0.48889464
Ca       0.00000000       0.00000000       3.41333333       0.00000000       0.00000000       0.48889464
2
Properties=species:S:1:pos:R:3:forces:R:3 energy=-10.415403567139906 pbc="F F F"
Ca       0.00000000       0.00000000       0.00000000       0.00000000       0.00000000      -0.32225433
Ca       0.00000000       0.00000000       3.47212121       0.00000000       0.00000000       0.32225433
2
Properties=species:S:1:pos:R:3:forces:R:3 energy=-10.429888889799733 pbc="F F F"
Ca       0.00000000       0.00000000       0.00000000       0.00000000       0.00000000      -0.17414436
Ca       0.00000000       0.00000000       3.53090909       0.00000000       0.00000000       0.17414436
2
Properties=species:S:1:pos:R:3:forces:R:3 energy=-10.436347052386717 pbc="F F F"
Ca       0.00000000       0.00000000       0.00000000       0.00000000       0.00000000      -0.04982143
Ca       0.00000000       0.00000000       3.58969697       0.00000000       0.00000000       0.04982143
2
Properties=species:S:1:pos:R:3:forces:R:3 energy=-10.436273003133307 pbc="F F F"
Ca       0.00000000       0.00000000       0.00000000       0.00000000       0.00000000       0.04780658
Ca       0.00000000       0.00000000       3.64848485       0.00000000       0.00000000      -0.04780658
2
Properties=species:S:1:pos:R:3:forces:R:3 energy=-10.431247972999893 pbc="F F F"
Ca       0.00000000       0.00000000       0.00000000       0.00000000       0.00000000       0.11888436
Ca       0.00000000       0.00000000       3.70727273       0.00000000       0.00000000      -0.11888436
2
Properties=species:S:1:pos:R:3:forces:R:3 energy=-10.422756461273654 pbc="F F F"
Ca       0.00000000       0.00000000       0.00000000       0.00000000       0.00000000       0.16647953
Ca       0.00000000       0.00000000       3.76606061       0.00000000       0.00000000      -0.16647953
2
Properties=species:S:1:pos:R:3:forces:R:3 energy=-10.412034198079734 pbc="F F F"
Ca       0.00000000       0.00000000       0.00000000       0.00000000       0.00000000       0.19569659
Ca       0.00000000       0.00000000       3.82484848       0.00000000       0.00000000      -0.19569659
2
Properties=species:S:1:pos:R:3:forces:R:3 energy=-10.399991219559778 pbc="F F F"
Ca       0.00000000       0.00000000       0.00000000       0.00000000       0.00000000       0.21247014
Ca       0.00000000       0.00000000       3.88363636       0.00000000       0.00000000      -0.21247014
2
Properties=species:S:1:pos:R:3:forces:R:3 energy=-10.387183797770698 pbc="F F F"
Ca       0.00000000       0.00000000       0.00000000       0.00000000       0.00000000       0.22257203
Ca       0.00000000       0.00000000       3.94242424       0.00000000       0.00000000      -0.22257203
2
Properties=species:S:1:pos:R:3:forces:R:3 energy=-10.37385062507542 pbc="F F F"
Ca       0.00000000       0.00000000       0.00000000       0.00000000       0.00000000       0.23117809
Ca       0.00000000       0.00000000       4.00121212       0.00000000       0.00000000      -0.23117809
2
Properties=species:S:1:pos:R:3:forces:R:3 energy=-10.359946118692786 pbc="F F F"
Ca       0.00000000       0.00000000       0.00000000       0.00000000       0.00000000       0.24263464
Ca       0.00000000       0.00000000       4.06000000       0.00000000       0.00000000      -0.24263464
2
Properties=species:S:1:pos:R:3:forces:R:3 energy=-10.34521089365357 pbc="F F F"
Ca       0.00000000       0.00000000       0.00000000       0.00000000       0.00000000       0.25969106
Ca       0.00000000       0.00000000       4.11878788       0.00000000       0.00000000      -0.25969106
2
Properties=species:S:1:pos:R:3:forces:R:3 energy=-10.329300595105302 pbc="F F F"
Ca       0.00000000       0.00000000       0.00000000       0.00000000       0.00000000       0.28235310
Ca       0.00000000       0.00000000       4.17757576       0.00000000       0.00000000      -0.28235310
2
Properties=species:S:1:pos:R:3:forces:R:3 energy=-10.311956315068775 pbc="F F F"
Ca       0.00000000       0.00000000       0.00000000       0.00000000       0.00000000       0.30781922
Ca       0.00000000       0.00000000       4.23636364       0.00000000       0.00000000      -0.30781922
2
Properties=species:S:1:pos:R:3:forces:R:3 energy=-10.293134955701719 pbc="F F F"
Ca       0.00000000       0.00000000       0.00000000       0.00000000       0.00000000       0.33191347
Ca       0.00000000       0.00000000       4.29515152       0.00000000       0.00000000      -0.33191347
2
Properties=species:S:1:pos:R:3:forces:R:3 energy=-10.273038197971736 pbc="F F F"
Ca       0.00000000       0.00000000       0.00000000       0.00000000       0.00000000       0.35063705
Ca       0.00000000       0.00000000       4.35393939       0.00000000       0.00000000      -0.35063705
2
Properties=species:S:1:pos:R:3:forces:R:3 energy=-10.252074472430966 pbc="F F F"
Ca       0.00000000       0.00000000       0.00000000       0.00000000       0.00000000       0.36094525
Ca       0.00000000       0.00000000       4.41272727       0.00000000       0.00000000      -0.36094525
2
Properties=species:S:1:pos:R:3:forces:R:3 energy=-10.23080084184223 pbc="F F F"
Ca       0.00000000       0.00000000       0.00000000       0.00000000       0.00000000       0.36100972
Ca       0.00000000       0.00000000       4.47151515       0.00000000       0.00000000      -0.36100972
2
Properties=species:S:1:pos:R:3:forces:R:3 energy=-10.209838675235261 pbc="F F F"
Ca       0.00000000       0.00000000       0.00000000       0.00000000       0.00000000       0.35037842
Ca       0.00000000       0.00000000       4.53030303       0.00000000       0.00000000      -0.35037842
2
Properties=species:S:1:pos:R:3:forces:R:3 energy=-10.189796838245769 pbc="F F F"
Ca       0.00000000       0.00000000       0.00000000       0.00000000       0.00000000       0.33003831
Ca       0.00000000       0.00000000       4.58909091       0.00000000       0.00000000      -0.33003831
2
Properties=species:S:1:pos:R:3:forces:R:3 energy=-10.171181464530735 pbc="F F F"
Ca       0.00000000       0.00000000       0.00000000       0.00000000       0.00000000       0.30226213
Ca       0.00000000       0.00000000       4.64787879       0.00000000       0.00000000      -0.30226213
2
Properties=species:S:1:pos:R:3:forces:R:3 energy=-10.154342483002862 pbc="F F F"
Ca       0.00000000       0.00000000       0.00000000       0.00000000       0.00000000       0.27014703
Ca       0.00000000       0.00000000       4.70666667       0.00000000       0.00000000      -0.27014703
2
Properties=species:S:1:pos:R:3:forces:R:3 energy=-10.13943995998162 pbc="F F F"
Ca       0.00000000       0.00000000       0.00000000       0.00000000       0.00000000       0.23695271
Ca       0.00000000       0.00000000       4.76545455       0.00000000       0.00000000      -0.23695271
2
Properties=species:S:1:pos:R:3:forces:R:3 energy=-10.12644982725508 pbc="F F F"
Ca       0.00000000       0.00000000       0.00000000       0.00000000       0.00000000       0.20537177
Ca       0.00000000       0.00000000       4.82424242       0.00000000       0.00000000      -0.20537177
2
Properties=species:S:1:pos:R:3:forces:R:3 energy=-10.115229064394898 pbc="F F F"
Ca       0.00000000       0.00000000       0.00000000       0.00000000       0.00000000       0.17703466
Ca       0.00000000       0.00000000       4.88303030       0.00000000       0.00000000      -0.17703466
2
Properties=species:S:1:pos:R:3:forces:R:3 energy=-10.105563385480124 pbc="F F F"
Ca       0.00000000       0.00000000       0.00000000       0.00000000       0.00000000       0.15237495
Ca       0.00000000       0.00000000       4.94181818       0.00000000       0.00000000      -0.15237495
2
Properties=species:S:1:pos:R:3:forces:R:3 energy=-10.097246945266505 pbc="F F F"
Ca       0.00000000       0.00000000       0.00000000       0.00000000       0.00000000       0.13107091
Ca       0.00000000       0.00000000       5.00060606       0.00000000       0.00000000      -0.13107091
2
Properties=species:S:1:pos:R:3:forces:R:3 energy=-10.090092186376223 pbc="F F F"
Ca       0.00000000       0.00000000       0.00000000       0.00000000       0.00000000       0.11283325
Ca       0.00000000       0.00000000       5.05939394       0.00000000       0.00000000      -0.11283325
2
Properties=species:S:1:pos:R:3:forces:R:3 energy=-10.083906491620244 pbc="F F F"
Ca       0.00000000       0.00000000       0.00000000       0.00000000       0.00000000       0.09840910
Ca       0.00000000       0.00000000       5.11818182       0.00000000       0.00000000      -0.09840910
2
Properties=species:S:1:pos:R:3:forces:R:3 energy=-10.078402437242257 pbc="F F F"
Ca       0.00000000       0.00000000       0.00000000       0.00000000       0.00000000       0.09014268
Ca       0.00000000       0.00000000       5.17696970       0.00000000       0.00000000      -0.09014268
2
Properties=species:S:1:pos:R:3:forces:R:3 energy=-10.073124670442896 pbc="F F F"
Ca       0.00000000       0.00000000       0.00000000       0.00000000       0.00000000       0.09118509
Ca       0.00000000       0.00000000       5.23575758       0.00000000       0.00000000      -0.09118509
2
Properties=species:S:1:pos:R:3:forces:R:3 energy=-10.067477540592321 pbc="F F F"
Ca       0.00000000       0.00000000       0.00000000       0.00000000       0.00000000       0.10237344
Ca       0.00000000       0.00000000       5.29454545       0.00000000       0.00000000      -0.10237344
2
Properties=species:S:1:pos:R:3:forces:R:3 energy=-10.060992251583892 pbc="F F F"
Ca       0.00000000       0.00000000       0.00000000       0.00000000       0.00000000       0.11826205
Ca       0.00000000       0.00000000       5.35333333       0.00000000       0.00000000      -0.11826205
2
Properties=species:S:1:pos:R:3:forces:R:3 energy=-10.053661569840997 pbc="F F F"
Ca       0.00000000       0.00000000       0.00000000       0.00000000       0.00000000       0.13003929
Ca       0.00000000       0.00000000       5.41212121       0.00000000       0.00000000      -0.13003929
2
Properties=species:S:1:pos:R:3:forces:R:3 energy=-10.045751110844 pbc="F F F"
Ca       0.00000000       0.00000000       0.00000000       0.00000000       0.00000000       0.13995831
Ca       0.00000000       0.00000000       5.47090909       0.00000000       0.00000000      -0.13995831
2
Properties=species:S:1:pos:R:3:forces:R:3 energy=-10.036953344480398 pbc="F F F"
Ca       0.00000000       0.00000000       0.00000000       0.00000000       0.00000000       0.16171965
Ca       0.00000000       0.00000000       5.52969697       0.00000000       0.00000000      -0.16171965
2
Properties=species:S:1:pos:R:3:forces:R:3 energy=-10.026669971341489 pbc="F F F"
Ca       0.00000000       0.00000000       0.00000000       0.00000000       0.00000000       0.18627873
Ca       0.00000000       0.00000000       5.58848485       0.00000000       0.00000000      -0.18627873
2
Properties=species:S:1:pos:R:3:forces:R:3 energy=-10.015419473153482 pbc="F F F"
Ca       0.00000000       0.00000000       0.00000000       0.00000000       0.00000000       0.19415960
Ca       0.00000000       0.00000000       5.64727273       0.00000000       0.00000000      -0.19415960
2
Properties=species:S:1:pos:R:3:forces:R:3 energy=-10.003802420493711 pbc="F F F"
Ca       0.00000000       0.00000000       0.00000000       0.00000000       0.00000000       0.20465918
Ca       0.00000000       0.00000000       5.70606061       0.00000000       0.00000000      -0.20465918
2
Properties=species:S:1:pos:R:3:forces:R:3 energy=-9.990712376605225 pbc="F F F"
Ca       0.00000000       0.00000000       0.00000000       0.00000000       0.00000000       0.24334112
Ca       0.00000000       0.00000000       5.76484848       0.00000000       0.00000000      -0.24334112
2
Properties=species:S:1:pos:R:3:forces:R:3 energy=-9.975613227314865 pbc="F F F"
Ca       0.00000000       0.00000000       0.00000000       0.00000000       0.00000000       0.25848809
Ca       0.00000000       0.00000000       5.82363636       0.00000000       0.00000000      -0.25848809
2
Properties=species:S:1:pos:R:3:forces:R:3 energy=-9.962343378377932 pbc="F F F"
Ca       0.00000000       0.00000000       0.00000000       0.00000000       0.00000000       0.17961237
Ca       0.00000000       0.00000000       5.88242424       0.00000000       0.00000000      -0.17961237
2
Properties=species:S:1:pos:R:3:forces:R:3 energy=-9.955276281687283 pbc="F F F"
Ca       0.00000000       0.00000000       0.00000000       0.00000000       0.00000000       0.06315621
Ca       0.00000000       0.00000000       5.94121212       0.00000000       0.00000000      -0.06315621
2
Properties=species:S:1:pos:R:3:forces:R:3 energy=-9.953546849780105 pbc="F F F"
Ca       0.00000000       0.00000000       0.00000000       0.00000000       0.00000000       0.01232663
Ca       0.00000000       0.00000000       6.00000000       0.00000000       0.00000000      -0.01232663
