2
Properties=species:S:1:pos:R:3:forces:R:3 energy=9435.45342231267 pbc="F F F"
Eu       0.00000000       0.00000000       0.00000000       0.00000000       0.00000000 -204309.31250000
Eu       0.00000000       0.00000000       0.18000000       0.00000000       0.00000000  204309.31250000
2
Properties=species:S:1:pos:R:3:forces:R:3 energy=2255.5725629376707 pbc="F F F"
Eu       0.00000000       0.00000000       0.00000000       0.00000000       0.00000000  -68412.29687500
Eu       0.00000000       0.00000000       0.23878788       0.00000000       0.00000000   68412.29687500
2
Properties=species:S:1:pos:R:3:forces:R:3 energy=-324.88559746272017 pbc="F F F"
Eu       0.00000000       0.00000000       0.00000000       0.00000000       0.00000000  -26587.23242188
Eu       0.00000000       0.00000000       0.29757576       0.00000000       0.00000000   26587.23242188
2
Properties=species:S:1:pos:R:3:forces:R:3 energy=-1356.2133257342045 pbc="F F F"
Eu       0.00000000       0.00000000       0.00000000       0.00000000       0.00000000  -10793.11425781
Eu       0.00000000       0.00000000       0.35636364       0.00000000       0.00000000   10793.11425781
2
Properties=species:S:1:pos:R:3:forces:R:3 energy=-1759.643867726392 pbc="F F F"
Eu       0.00000000       0.00000000       0.00000000       0.00000000       0.00000000   -3574.48095703
Eu       0.00000000       0.00000000       0.41515152       0.00000000       0.00000000    3574.48095703
2
Properties=species:S:1:pos:R:3:forces:R:3 energy=-1798.5102007334126 pbc="F F F"
Eu       0.00000000       0.00000000       0.00000000       0.00000000       0.00000000    1106.23669434
Eu       0.00000000       0.00000000       0.47393939       0.00000000       0.00000000   -1106.23669434
2
Properties=species:S:1:pos:R:3:forces:R:3 energy=-1651.0501177256 pbc="F F F"
Eu       0.00000000       0.00000000       0.00000000       0.00000000       0.00000000    3734.80371094
Eu       0.00000000       0.00000000       0.53272727       0.00000000       0.00000000   -3734.80371094
2
Properties=species:S:1:pos:R:3:forces:R:3 energy=-1377.6657183107457 pbc="F F F"
Eu       0.00000000       0.00000000       0.00000000       0.00000000       0.00000000    5428.13623047
Eu       0.00000000       0.00000000       0.59151515       0.00000000       0.00000000   -5428.13623047
2
Properties=species:S:1:pos:R:3:forces:R:3 energy=-1026.0028765130787 pbc="F F F"
Eu       0.00000000       0.00000000       0.00000000       0.00000000       0.00000000    7382.19628906
Eu       0.00000000       0.00000000       0.65030303       0.00000000       0.00000000   -7382.19628906
2
Properties=species:S:1:pos:R:3:forces:R:3 energy=-388.7464678192965 pbc="F F F"
Eu       0.00000000       0.00000000       0.00000000       0.00000000       0.00000000   14681.55664062
Eu       0.00000000       0.00000000       0.70909091       0.00000000       0.00000000  -14681.55664062
2
Properties=species:S:1:pos:R:3:forces:R:3 energy=235.86956001590252 pbc="F F F"
Eu       0.00000000       0.00000000       0.00000000       0.00000000       0.00000000    6933.80712891
Eu       0.00000000       0.00000000       0.76787879       0.00000000       0.00000000   -6933.80712891
2
Properties=species:S:1:pos:R:3:forces:R:3 energy=360.5863263772842 pbc="F F F"
Eu       0.00000000       0.00000000       0.00000000       0.00000000       0.00000000   -1702.70397949
Eu       0.00000000       0.00000000       0.82666667       0.00000000       0.00000000    1702.70397949
2
Properties=species:S:1:pos:R:3:forces:R:3 energy=152.69155099299482 pbc="F F F"
Eu       0.00000000       0.00000000       0.00000000       0.00000000       0.00000000   -4352.32226562
Eu       0.00000000       0.00000000       0.88545455       0.00000000       0.00000000    4352.32226562
2
Properties=species:S:1:pos:R:3:forces:R:3 energy=-24.109264579777097 pbc="F F F"
Eu       0.00000000       0.00000000       0.00000000       0.00000000       0.00000000   -2081.21899414
Eu       0.00000000       0.00000000       0.94424242       0.00000000       0.00000000    2081.21899414
2
Properties=species:S:1:pos:R:3:forces:R:3 energy=-33.760235026090186 pbc="F F F"
Eu       0.00000000       0.00000000       0.00000000       0.00000000       0.00000000    -127.99917603
Eu       0.00000000       0.00000000       1.00303030       0.00000000       0.00000000     127.99917603
2
Properties=species:S:1:pos:R:3:forces:R:3 energy=-40.629722772702245 pbc="F F F"
Eu       0.00000000       0.00000000       0.00000000       0.00000000       0.00000000    -125.83896637
Eu       0.00000000       0.00000000       1.06181818       0.00000000       0.00000000     125.83896637
2
Properties=species:S:1:pos:R:3:forces:R:3 energy=-47.647094882667105 pbc="F F F"
Eu       0.00000000       0.00000000       0.00000000       0.00000000       0.00000000    -110.43199921
Eu       0.00000000       0.00000000       1.12060606       0.00000000       0.00000000     110.43199921
2
Properties=species:S:1:pos:R:3:forces:R:3 energy=-53.46348965927295 pbc="F F F"
Eu       0.00000000       0.00000000       0.00000000       0.00000000       0.00000000     -87.47935486
Eu       0.00000000       0.00000000       1.17939394       0.00000000       0.00000000      87.47935486
2
Properties=species:S:1:pos:R:3:forces:R:3 energy=-57.886932463419164 pbc="F F F"
Eu       0.00000000       0.00000000       0.00000000       0.00000000       0.00000000     -62.13021851
Eu       0.00000000       0.00000000       1.23818182       0.00000000       0.00000000      62.13021851
2
Properties=species:S:1:pos:R:3:forces:R:3 energy=-60.792343182503394 pbc="F F F"
Eu       0.00000000       0.00000000       0.00000000       0.00000000       0.00000000     -38.43147278
Eu       0.00000000       0.00000000       1.29696970       0.00000000       0.00000000      38.43147278
2
Properties=species:S:1:pos:R:3:forces:R:3 energy=-62.675987227902596 pbc="F F F"
Eu       0.00000000       0.00000000       0.00000000       0.00000000       0.00000000     -27.61237144
Eu       0.00000000       0.00000000       1.35575758       0.00000000       0.00000000      27.61237144
2
Properties=species:S:1:pos:R:3:forces:R:3 energy=-64.16771689057886 pbc="F F F"
Eu       0.00000000       0.00000000       0.00000000       0.00000000       0.00000000     -23.54850388
Eu       0.00000000       0.00000000       1.41454545       0.00000000       0.00000000      23.54850388
2
Properties=species:S:1:pos:R:3:forces:R:3 energy=-65.45868664813678 pbc="F F F"
Eu       0.00000000       0.00000000       0.00000000       0.00000000       0.00000000     -20.34893608
Eu       0.00000000       0.00000000       1.47333333       0.00000000       0.00000000      20.34893608
2
Properties=species:S:1:pos:R:3:forces:R:3 energy=-66.5497967667552 pbc="F F F"
Eu       0.00000000       0.00000000       0.00000000       0.00000000       0.00000000     -16.63708687
Eu       0.00000000       0.00000000       1.53212121       0.00000000       0.00000000      16.63708687
2
Properties=species:S:1:pos:R:3:forces:R:3 energy=-67.40443377653493 pbc="F F F"
Eu       0.00000000       0.00000000       0.00000000       0.00000000       0.00000000     -12.49663448
Eu       0.00000000       0.00000000       1.59090909       0.00000000       0.00000000      12.49663448
2
Properties=species:S:1:pos:R:3:forces:R:3 energy=-68.05493104833162 pbc="F F F"
Eu       0.00000000       0.00000000       0.00000000       0.00000000       0.00000000     -10.13990879
Eu       0.00000000       0.00000000       1.64969697       0.00000000       0.00000000      10.13990879
2
Properties=species:S:1:pos:R:3:forces:R:3 energy=-68.6510383348368 pbc="F F F"
Eu       0.00000000       0.00000000       0.00000000       0.00000000       0.00000000     -10.38558578
Eu       0.00000000       0.00000000       1.70848485       0.00000000       0.00000000      10.38558578
2
Properties=species:S:1:pos:R:3:forces:R:3 energy=-69.27525990059186 pbc="F F F"
Eu       0.00000000       0.00000000       0.00000000       0.00000000       0.00000000     -10.71694660
Eu       0.00000000       0.00000000       1.76727273       0.00000000       0.00000000      10.71694660
2
Properties=species:S:1:pos:R:3:forces:R:3 energy=-69.90212882348368 pbc="F F F"
Eu       0.00000000       0.00000000       0.00000000       0.00000000       0.00000000     -10.62642765
Eu       0.00000000       0.00000000       1.82606061       0.00000000       0.00000000      10.62642765
2
Properties=species:S:1:pos:R:3:forces:R:3 energy=-70.53173664832704 pbc="F F F"
Eu       0.00000000       0.00000000       0.00000000       0.00000000       0.00000000     -10.84931850
Eu       0.00000000       0.00000000       1.88484848       0.00000000       0.00000000      10.84931850
2
Properties=species:S:1:pos:R:3:forces:R:3 energy=-71.17945659718289 pbc="F F F"
Eu       0.00000000       0.00000000       0.00000000       0.00000000       0.00000000     -11.15486813
Eu       0.00000000       0.00000000       1.94363636       0.00000000       0.00000000      11.15486813
2
Properties=species:S:1:pos:R:3:forces:R:3 energy=-71.83521023987544 pbc="F F F"
Eu       0.00000000       0.00000000       0.00000000       0.00000000       0.00000000     -11.06096363
Eu       0.00000000       0.00000000       2.00242424       0.00000000       0.00000000      11.06096363
2
Properties=species:S:1:pos:R:3:forces:R:3 energy=-72.46858679317205 pbc="F F F"
Eu       0.00000000       0.00000000       0.00000000       0.00000000       0.00000000     -10.39983082
Eu       0.00000000       0.00000000       2.06121212       0.00000000       0.00000000      10.39983082
2
Properties=species:S:1:pos:R:3:forces:R:3 energy=-73.05041908573955 pbc="F F F"
Eu       0.00000000       0.00000000       0.00000000       0.00000000       0.00000000      -9.35656929
Eu       0.00000000       0.00000000       2.12000000       0.00000000       0.00000000       9.35656929
2
Properties=species:S:1:pos:R:3:forces:R:3 energy=-73.56698946066703 pbc="F F F"
Eu       0.00000000       0.00000000       0.00000000       0.00000000       0.00000000      -8.22185230
Eu       0.00000000       0.00000000       2.17878788       0.00000000       0.00000000       8.22185230
2
Properties=species:S:1:pos:R:3:forces:R:3 energy=-74.01885486850703 pbc="F F F"
Eu       0.00000000       0.00000000       0.00000000       0.00000000       0.00000000      -7.17052650
Eu       0.00000000       0.00000000       2.23757576       0.00000000       0.00000000       7.17052650
2
Properties=species:S:1:pos:R:3:forces:R:3 energy=-74.41220278703022 pbc="F F F"
Eu       0.00000000       0.00000000       0.00000000       0.00000000       0.00000000      -6.22571611
Eu       0.00000000       0.00000000       2.29636364       0.00000000       0.00000000       6.22571611
2
Properties=species:S:1:pos:R:3:forces:R:3 energy=-74.75192370327258 pbc="F F F"
Eu       0.00000000       0.00000000       0.00000000       0.00000000       0.00000000      -5.33630133
Eu       0.00000000       0.00000000       2.35515152       0.00000000       0.00000000       5.33630133
2
Properties=species:S:1:pos:R:3:forces:R:3 energy=-75.03988692739219 pbc="F F F"
Eu       0.00000000       0.00000000       0.00000000       0.00000000       0.00000000      -4.46209955
Eu       0.00000000       0.00000000       2.41393939       0.00000000       0.00000000       4.46209955
2
Properties=species:S:1:pos:R:3:forces:R:3 energy=-75.27699291246937 pbc="F F F"
Eu       0.00000000       0.00000000       0.00000000       0.00000000       0.00000000      -3.61118221
Eu       0.00000000       0.00000000       2.47272727       0.00000000       0.00000000       3.61118221
2
Properties=species:S:1:pos:R:3:forces:R:3 energy=-75.46578257475261 pbc="F F F"
Eu       0.00000000       0.00000000       0.00000000       0.00000000       0.00000000      -2.82695127
Eu       0.00000000       0.00000000       2.53151515       0.00000000       0.00000000       2.82695127
2
Properties=species:S:1:pos:R:3:forces:R:3 energy=-75.61158173530845 pbc="F F F"
Eu       0.00000000       0.00000000       0.00000000       0.00000000       0.00000000      -2.15448403
Eu       0.00000000       0.00000000       2.59030303       0.00000000       0.00000000       2.15448403
2
Properties=species:S:1:pos:R:3:forces:R:3 energy=-75.72173068739016 pbc="F F F"
Eu       0.00000000       0.00000000       0.00000000       0.00000000       0.00000000      -1.61518967
Eu       0.00000000       0.00000000       2.64909091       0.00000000       0.00000000       1.61518967
2
Properties=species:S:1:pos:R:3:forces:R:3 energy=-75.80396689230194 pbc="F F F"
Eu       0.00000000       0.00000000       0.00000000       0.00000000       0.00000000      -1.20186090
Eu       0.00000000       0.00000000       2.70787879       0.00000000       0.00000000       1.20186090
2
Properties=species:S:1:pos:R:3:forces:R:3 energy=-75.8650213513711 pbc="F F F"
Eu       0.00000000       0.00000000       0.00000000       0.00000000       0.00000000      -0.88983762
Eu       0.00000000       0.00000000       2.76666667       0.00000000       0.00000000       0.88983762
2
Properties=species:S:1:pos:R:3:forces:R:3 energy=-75.9100543356555 pbc="F F F"
Eu       0.00000000       0.00000000       0.00000000       0.00000000       0.00000000      -0.65277636
Eu       0.00000000       0.00000000       2.82545455       0.00000000       0.00000000       0.65277636
2
Properties=species:S:1:pos:R:3:forces:R:3 energy=-75.94288460198487 pbc="F F F"
Eu       0.00000000       0.00000000       0.00000000       0.00000000       0.00000000      -0.47262323
Eu       0.00000000       0.00000000       2.88424242       0.00000000       0.00000000       0.47262323
2
Properties=species:S:1:pos:R:3:forces:R:3 energy=-75.96655449797429 pbc="F F F"
Eu       0.00000000       0.00000000       0.00000000       0.00000000       0.00000000      -0.34021538
Eu       0.00000000       0.00000000       2.94303030       0.00000000       0.00000000       0.34021538
2
Properties=species:S:1:pos:R:3:forces:R:3 energy=-75.9837122165787 pbc="F F F"
Eu       0.00000000       0.00000000       0.00000000       0.00000000       0.00000000      -0.24982926
Eu       0.00000000       0.00000000       3.00181818       0.00000000       0.00000000       0.24982926
2
Properties=species:S:1:pos:R:3:forces:R:3 energy=-75.99659761277948 pbc="F F F"
Eu       0.00000000       0.00000000       0.00000000       0.00000000       0.00000000      -0.19359753
Eu       0.00000000       0.00000000       3.06060606       0.00000000       0.00000000       0.19359753
2
Properties=species:S:1:pos:R:3:forces:R:3 energy=-76.00691420341398 pbc="F F F"
Eu       0.00000000       0.00000000       0.00000000       0.00000000       0.00000000      -0.15975223
Eu       0.00000000       0.00000000       3.11939394       0.00000000       0.00000000       0.15975223
2
Properties=species:S:1:pos:R:3:forces:R:3 energy=-76.01556473202132 pbc="F F F"
Eu       0.00000000       0.00000000       0.00000000       0.00000000       0.00000000      -0.13506974
Eu       0.00000000       0.00000000       3.17818182       0.00000000       0.00000000       0.13506974
2
Properties=species:S:1:pos:R:3:forces:R:3 energy=-76.02276970337853 pbc="F F F"
Eu       0.00000000       0.00000000       0.00000000       0.00000000       0.00000000      -0.10928340
Eu       0.00000000       0.00000000       3.23696970       0.00000000       0.00000000       0.10928340
2
Properties=species:S:1:pos:R:3:forces:R:3 energy=-76.02831013375675 pbc="F F F"
Eu       0.00000000       0.00000000       0.00000000       0.00000000       0.00000000      -0.07847968
Eu       0.00000000       0.00000000       3.29575758       0.00000000       0.00000000       0.07847968
2
Properties=species:S:1:pos:R:3:forces:R:3 energy=-76.03194837169792 pbc="F F F"
Eu       0.00000000       0.00000000       0.00000000       0.00000000       0.00000000      -0.04554239
Eu       0.00000000       0.00000000       3.35454545       0.00000000       0.00000000       0.04554239
2
Properties=species:S:1:pos:R:3:forces:R:3 energy=-76.0337582894774 pbc="F F F"
Eu       0.00000000       0.00000000       0.00000000       0.00000000       0.00000000      -0.01743303
Eu       0.00000000       0.00000000       3.41333333       0.00000000       0.00000000       0.01743303
2
Properties=species:S:1:pos:R:3:forces:R:3 energy=-76.03422571335474 pbc="F F F"
Eu       0.00000000       0.00000000       0.00000000       0.00000000       0.00000000      -0.00067071
Eu       0.00000000       0.00000000       3.47212121       0.00000000       0.00000000       0.00067071
2
Properties=species:S:1:pos:R:3:forces:R:3 energy=-76.03409932351359 pbc="F F F"
Eu       0.00000000       0.00000000       0.00000000       0.00000000       0.00000000       0.00311272
Eu       0.00000000       0.00000000       3.53090909       0.00000000       0.00000000      -0.00311272
2
Properties=species:S:1:pos:R:3:forces:R:3 energy=-76.03399907312703 pbc="F F F"
Eu       0.00000000       0.00000000       0.00000000       0.00000000       0.00000000       0.00002002
Eu       0.00000000       0.00000000       3.58969697       0.00000000       0.00000000      -0.00002002
2
Properties=species:S:1:pos:R:3:forces:R:3 energy=-76.03397298050999 pbc="F F F"
Eu       0.00000000       0.00000000       0.00000000       0.00000000       0.00000000       0.00296055
Eu       0.00000000       0.00000000       3.64848485       0.00000000       0.00000000      -0.00296055
2
Properties=species:S:1:pos:R:3:forces:R:3 energy=-76.03328053885502 pbc="F F F"
Eu       0.00000000       0.00000000       0.00000000       0.00000000       0.00000000       0.02423678
Eu       0.00000000       0.00000000       3.70727273       0.00000000       0.00000000      -0.02423678
2
Properties=species:S:1:pos:R:3:forces:R:3 energy=-76.0307025729194 pbc="F F F"
Eu       0.00000000       0.00000000       0.00000000       0.00000000       0.00000000       0.06699893
Eu       0.00000000       0.00000000       3.76606061       0.00000000       0.00000000      -0.06699893
2
Properties=species:S:1:pos:R:3:forces:R:3 energy=-76.02506460423712 pbc="F F F"
Eu       0.00000000       0.00000000       0.00000000       0.00000000       0.00000000       0.12707612
Eu       0.00000000       0.00000000       3.82484848       0.00000000       0.00000000      -0.12707612
2
Properties=species:S:1:pos:R:3:forces:R:3 energy=-76.015497217329 pbc="F F F"
Eu       0.00000000       0.00000000       0.00000000       0.00000000       0.00000000       0.20047422
Eu       0.00000000       0.00000000       3.88363636       0.00000000       0.00000000      -0.20047422
2
Properties=species:S:1:pos:R:3:forces:R:3 energy=-76.00127707388837 pbc="F F F"
Eu       0.00000000       0.00000000       0.00000000       0.00000000       0.00000000       0.28484854
Eu       0.00000000       0.00000000       3.94242424       0.00000000       0.00000000      -0.28484854
2
Properties=species:S:1:pos:R:3:forces:R:3 energy=-75.98184961691248 pbc="F F F"
Eu       0.00000000       0.00000000       0.00000000       0.00000000       0.00000000       0.37710693
Eu       0.00000000       0.00000000       4.00121212       0.00000000       0.00000000      -0.37710693
2
Properties=species:S:1:pos:R:3:forces:R:3 energy=-75.95687965904985 pbc="F F F"
Eu       0.00000000       0.00000000       0.00000000       0.00000000       0.00000000       0.47239909
Eu       0.00000000       0.00000000       4.06000000       0.00000000       0.00000000      -0.47239909
2
Properties=species:S:1:pos:R:3:forces:R:3 energy=-75.92636335572651 pbc="F F F"
Eu       0.00000000       0.00000000       0.00000000       0.00000000       0.00000000       0.56482333
Eu       0.00000000       0.00000000       4.11878788       0.00000000       0.00000000      -0.56482333
2
Properties=species:S:1:pos:R:3:forces:R:3 energy=-75.89064111018477 pbc="F F F"
Eu       0.00000000       0.00000000       0.00000000       0.00000000       0.00000000       0.64860219
Eu       0.00000000       0.00000000       4.17757576       0.00000000       0.00000000      -0.64860219
2
Properties=species:S:1:pos:R:3:forces:R:3 energy=-75.85036488527844 pbc="F F F"
Eu       0.00000000       0.00000000       0.00000000       0.00000000       0.00000000       0.71899045
Eu       0.00000000       0.00000000       4.23636364       0.00000000       0.00000000      -0.71899045
2
Properties=species:S:1:pos:R:3:forces:R:3 energy=-75.8064315872241 pbc="F F F"
Eu       0.00000000       0.00000000       0.00000000       0.00000000       0.00000000       0.77271247
Eu       0.00000000       0.00000000       4.29515152       0.00000000       0.00000000      -0.77271247
2
Properties=species:S:1:pos:R:3:forces:R:3 energy=-75.75988032472917 pbc="F F F"
Eu       0.00000000       0.00000000       0.00000000       0.00000000       0.00000000       0.80795878
Eu       0.00000000       0.00000000       4.35393939       0.00000000       0.00000000      -0.80795878
2
Properties=species:S:1:pos:R:3:forces:R:3 energy=-75.71181015192649 pbc="F F F"
Eu       0.00000000       0.00000000       0.00000000       0.00000000       0.00000000       0.82407969
Eu       0.00000000       0.00000000       4.41272727       0.00000000       0.00000000      -0.82407969
2
Properties=species:S:1:pos:R:3:forces:R:3 energy=-75.66335778841258 pbc="F F F"
Eu       0.00000000       0.00000000       0.00000000       0.00000000       0.00000000       0.82128811
Eu       0.00000000       0.00000000       4.47151515       0.00000000       0.00000000      -0.82128811
2
Properties=species:S:1:pos:R:3:forces:R:3 energy=-75.6155987665723 pbc="F F F"
Eu       0.00000000       0.00000000       0.00000000       0.00000000       0.00000000       0.80051470
Eu       0.00000000       0.00000000       4.53030303       0.00000000       0.00000000      -0.80051470
2
Properties=species:S:1:pos:R:3:forces:R:3 energy=-75.56955508314802 pbc="F F F"
Eu       0.00000000       0.00000000       0.00000000       0.00000000       0.00000000       0.76348156
Eu       0.00000000       0.00000000       4.58909091       0.00000000       0.00000000      -0.76348156
2
Properties=species:S:1:pos:R:3:forces:R:3 energy=-75.5261037573791 pbc="F F F"
Eu       0.00000000       0.00000000       0.00000000       0.00000000       0.00000000       0.71292126
Eu       0.00000000       0.00000000       4.64787879       0.00000000       0.00000000      -0.71292126
2
Properties=species:S:1:pos:R:3:forces:R:3 energy=-75.4859234252402 pbc="F F F"
Eu       0.00000000       0.00000000       0.00000000       0.00000000       0.00000000       0.65264982
Eu       0.00000000       0.00000000       4.70666667       0.00000000       0.00000000      -0.65264982
2
Properties=species:S:1:pos:R:3:forces:R:3 energy=-75.44946382819867 pbc="F F F"
Eu       0.00000000       0.00000000       0.00000000       0.00000000       0.00000000       0.58743727
Eu       0.00000000       0.00000000       4.76545455       0.00000000       0.00000000      -0.58743727
2
Properties=species:S:1:pos:R:3:forces:R:3 energy=-75.41684665326058 pbc="F F F"
Eu       0.00000000       0.00000000       0.00000000       0.00000000       0.00000000       0.52243167
Eu       0.00000000       0.00000000       4.82424242       0.00000000       0.00000000      -0.52243167
2
Properties=species:S:1:pos:R:3:forces:R:3 energy=-75.38794181107673 pbc="F F F"
Eu       0.00000000       0.00000000       0.00000000       0.00000000       0.00000000       0.46249750
Eu       0.00000000       0.00000000       4.88303030       0.00000000       0.00000000      -0.46249750
2
Properties=species:S:1:pos:R:3:forces:R:3 energy=-75.36229880307026 pbc="F F F"
Eu       0.00000000       0.00000000       0.00000000       0.00000000       0.00000000       0.41151431
Eu       0.00000000       0.00000000       4.94181818       0.00000000       0.00000000      -0.41151431
2
Properties=species:S:1:pos:R:3:forces:R:3 energy=-75.3393221785038 pbc="F F F"
Eu       0.00000000       0.00000000       0.00000000       0.00000000       0.00000000       0.37219727
Eu       0.00000000       0.00000000       5.00060606       0.00000000       0.00000000      -0.37219727
2
Properties=species:S:1:pos:R:3:forces:R:3 energy=-75.31827914486719 pbc="F F F"
Eu       0.00000000       0.00000000       0.00000000       0.00000000       0.00000000       0.34595162
Eu       0.00000000       0.00000000       5.05939394       0.00000000       0.00000000      -0.34595162
2
Properties=species:S:1:pos:R:3:forces:R:3 energy=-75.29839121564642 pbc="F F F"
Eu       0.00000000       0.00000000       0.00000000       0.00000000       0.00000000       0.33278325
Eu       0.00000000       0.00000000       5.11818182       0.00000000       0.00000000      -0.33278325
2
Properties=species:S:1:pos:R:3:forces:R:3 energy=-75.27893328474661 pbc="F F F"
Eu       0.00000000       0.00000000       0.00000000       0.00000000       0.00000000       0.33064884
Eu       0.00000000       0.00000000       5.17696970       0.00000000       0.00000000      -0.33064884
2
Properties=species:S:1:pos:R:3:forces:R:3 energy=-75.25940155553512 pbc="F F F"
Eu       0.00000000       0.00000000       0.00000000       0.00000000       0.00000000       0.33413693
Eu       0.00000000       0.00000000       5.23575758       0.00000000       0.00000000      -0.33413693
2
Properties=species:S:1:pos:R:3:forces:R:3 energy=-75.23971949647998 pbc="F F F"
Eu       0.00000000       0.00000000       0.00000000       0.00000000       0.00000000       0.33382899
Eu       0.00000000       0.00000000       5.29454545       0.00000000       0.00000000      -0.33382899
2
Properties=species:S:1:pos:R:3:forces:R:3 energy=-75.22039046071873 pbc="F F F"
Eu       0.00000000       0.00000000       0.00000000       0.00000000       0.00000000       0.32190138
Eu       0.00000000       0.00000000       5.35333333       0.00000000       0.00000000      -0.32190138
2
Properties=species:S:1:pos:R:3:forces:R:3 energy=-75.20191783623498 pbc="F F F"
Eu       0.00000000       0.00000000       0.00000000       0.00000000       0.00000000       0.30891767
Eu       0.00000000       0.00000000       5.41212121       0.00000000       0.00000000      -0.30891767
2
Properties=species:S:1:pos:R:3:forces:R:3 energy=-75.18350042572916 pbc="F F F"
Eu       0.00000000       0.00000000       0.00000000       0.00000000       0.00000000       0.32329229
Eu       0.00000000       0.00000000       5.47090909       0.00000000       0.00000000      -0.32329229
2
Properties=species:S:1:pos:R:3:forces:R:3 energy=-75.16355126762147 pbc="F F F"
Eu       0.00000000       0.00000000       0.00000000       0.00000000       0.00000000       0.35323596
Eu       0.00000000       0.00000000       5.52969697       0.00000000       0.00000000      -0.35323596
2
Properties=species:S:1:pos:R:3:forces:R:3 energy=-75.14271885411138 pbc="F F F"
Eu       0.00000000       0.00000000       0.00000000       0.00000000       0.00000000       0.34753317
Eu       0.00000000       0.00000000       5.58848485       0.00000000       0.00000000      -0.34753317
2
Properties=species:S:1:pos:R:3:forces:R:3 energy=-75.12331497410527 pbc="F F F"
Eu       0.00000000       0.00000000       0.00000000       0.00000000       0.00000000       0.31304139
Eu       0.00000000       0.00000000       5.64727273       0.00000000       0.00000000      -0.31304139
2
Properties=species:S:1:pos:R:3:forces:R:3 energy=-75.10521765232528 pbc="F F F"
Eu       0.00000000       0.00000000       0.00000000       0.00000000       0.00000000       0.31278425
Eu       0.00000000       0.00000000       5.70606061       0.00000000       0.00000000      -0.31278425
2
Properties=species:S:1:pos:R:3:forces:R:3 energy=-75.08544400458597 pbc="F F F"
Eu       0.00000000       0.00000000       0.00000000       0.00000000       0.00000000       0.36046320
Eu       0.00000000       0.00000000       5.76484848       0.00000000       0.00000000      -0.36046320
2
Properties=species:S:1:pos:R:3:forces:R:3 energy=-75.0640324217823 pbc="F F F"
Eu       0.00000000       0.00000000       0.00000000       0.00000000       0.00000000       0.34830809
Eu       0.00000000       0.00000000       5.82363636       0.00000000       0.00000000      -0.34830809
2
Properties=species:S:1:pos:R:3:forces:R:3 energy=-75.04700281614944 pbc="F F F"
Eu       0.00000000       0.00000000       0.00000000       0.00000000       0.00000000       0.21895668
Eu       0.00000000       0.00000000       5.88242424       0.00000000       0.00000000      -0.21895668
2
Properties=species:S:1:pos:R:3:forces:R:3 energy=-75.038711977446 pbc="F F F"
Eu       0.00000000       0.00000000       0.00000000       0.00000000       0.00000000       0.06910584
Eu       0.00000000       0.00000000       5.94121212       0.00000000       0.00000000      -0.06910584
2
Properties=species:S:1:pos:R:3:forces:R:3 energy=-75.03706227200661 pbc="F F F"
Eu       0.00000000       0.00000000       0.00000000       0.00000000       0.00000000       0.00739401
Eu       0.00000000       0.00000000       6.00000000       0.00000000       0.00000000      -0.00739401
