2
Properties=species:S:1:pos:R:3:forces:R:3 energy=-5343.571456565732 pbc="F F F"
Fe       0.00000000       0.00000000       0.00000000       0.00000000       0.00000000  -48705.62109375
Fe       0.00000000       0.00000000       0.18000000       0.00000000       0.00000000   48705.62109375
2
Properties=species:S:1:pos:R:3:forces:R:3 energy=-6861.787276878232 pbc="F F F"
Fe       0.00000000       0.00000000       0.00000000       0.00000000       0.00000000   -8900.33984375
Fe       0.00000000       0.00000000       0.23878788       0.00000000       0.00000000    8900.33984375
2
Properties=species:S:1:pos:R:3:forces:R:3 energy=-6735.157394065732 pbc="F F F"
Fe       0.00000000       0.00000000       0.00000000       0.00000000       0.00000000   10875.69726562
Fe       0.00000000       0.00000000       0.29757576       0.00000000       0.00000000  -10875.69726562
2
Properties=species:S:1:pos:R:3:forces:R:3 energy=-5633.224776878232 pbc="F F F"
Fe       0.00000000       0.00000000       0.00000000       0.00000000       0.00000000   25772.27343750
Fe       0.00000000       0.00000000       0.35636364       0.00000000       0.00000000  -25772.27343750
2
Properties=species:S:1:pos:R:3:forces:R:3 energy=-1260.3579555883773 pbc="F F F"
Fe       0.00000000       0.00000000       0.00000000       0.00000000       0.00000000  164324.29687500
Fe       0.00000000       0.00000000       0.41515152       0.00000000       0.00000000 -164324.29687500
2
Properties=species:S:1:pos:R:3:forces:R:3 energy=5645.807449685852 pbc="F F F"
Fe       0.00000000       0.00000000       0.00000000       0.00000000       0.00000000   60045.08593750
Fe       0.00000000       0.00000000       0.47393939       0.00000000       0.00000000  -60045.08593750
2
Properties=species:S:1:pos:R:3:forces:R:3 energy=5822.028152812436 pbc="F F F"
Fe       0.00000000       0.00000000       0.00000000       0.00000000       0.00000000  -41978.48437500
Fe       0.00000000       0.00000000       0.53272727       0.00000000       0.00000000   41978.48437500
2
Properties=species:S:1:pos:R:3:forces:R:3 energy=2837.531326643729 pbc="F F F"
Fe       0.00000000       0.00000000       0.00000000       0.00000000       0.00000000  -43216.26953125
Fe       0.00000000       0.00000000       0.59151515       0.00000000       0.00000000   43216.26953125
2
Properties=species:S:1:pos:R:3:forces:R:3 energy=1692.8487094609804 pbc="F F F"
Fe       0.00000000       0.00000000       0.00000000       0.00000000       0.00000000    1851.52368164
Fe       0.00000000       0.00000000       0.65030303       0.00000000       0.00000000   -1851.52368164
2
Properties=species:S:1:pos:R:3:forces:R:3 energy=1726.86579931265 pbc="F F F"
Fe       0.00000000       0.00000000       0.00000000       0.00000000       0.00000000  -15072.55566406
Fe       0.00000000       0.00000000       0.70909091       0.00000000       0.00000000   15072.55566406
2
Properties=species:S:1:pos:R:3:forces:R:3 energy=1145.223831551092 pbc="F F F"
Fe       0.00000000       0.00000000       0.00000000       0.00000000       0.00000000   -6816.91503906
Fe       0.00000000       0.00000000       0.76787879       0.00000000       0.00000000    6816.91503906
2
Properties=species:S:1:pos:R:3:forces:R:3 energy=803.8294834239837 pbc="F F F"
Fe       0.00000000       0.00000000       0.00000000       0.00000000       0.00000000   -5464.65625000
Fe       0.00000000       0.00000000       0.82666667       0.00000000       0.00000000    5464.65625000
2
Properties=species:S:1:pos:R:3:forces:R:3 energy=512.7499546415245 pbc="F F F"
Fe       0.00000000       0.00000000       0.00000000       0.00000000       0.00000000   -4173.50927734
Fe       0.00000000       0.00000000       0.88545455       0.00000000       0.00000000    4173.50927734
2
Properties=species:S:1:pos:R:3:forces:R:3 energy=320.8833470095629 pbc="F F F"
Fe       0.00000000       0.00000000       0.00000000       0.00000000       0.00000000   -2454.56738281
Fe       0.00000000       0.00000000       0.94424242       0.00000000       0.00000000    2454.56738281
2
Properties=species:S:1:pos:R:3:forces:R:3 energy=207.4642491574816 pbc="F F F"
Fe       0.00000000       0.00000000       0.00000000       0.00000000       0.00000000   -1557.11340332
Fe       0.00000000       0.00000000       1.00303030       0.00000000       0.00000000    1557.11340332
2
Properties=species:S:1:pos:R:3:forces:R:3 energy=125.57365474000005 pbc="F F F"
Fe       0.00000000       0.00000000       0.00000000       0.00000000       0.00000000   -1288.65234375
Fe       0.00000000       0.00000000       1.06181818       0.00000000       0.00000000    1288.65234375
2
Properties=species:S:1:pos:R:3:forces:R:3 energy=58.1014601539004 pbc="F F F"
Fe       0.00000000       0.00000000       0.00000000       0.00000000       0.00000000    -968.02679443
Fe       0.00000000       0.00000000       1.12060606       0.00000000       0.00000000     968.02679443
2
Properties=species:S:1:pos:R:3:forces:R:3 energy=12.22984008734347 pbc="F F F"
Fe       0.00000000       0.00000000       0.00000000       0.00000000       0.00000000    -617.18896484
Fe       0.00000000       0.00000000       1.17939394       0.00000000       0.00000000     617.18896484
2
Properties=species:S:1:pos:R:3:forces:R:3 energy=-12.592924165980056 pbc="F F F"
Fe       0.00000000       0.00000000       0.00000000       0.00000000       0.00000000    -164.88462830
Fe       0.00000000       0.00000000       1.23818182       0.00000000       0.00000000     164.88462830
2
Properties=species:S:1:pos:R:3:forces:R:3 energy=-16.501988275946044 pbc="F F F"
Fe       0.00000000       0.00000000       0.00000000       0.00000000       0.00000000     -33.42349625
Fe       0.00000000       0.00000000       1.29696970       0.00000000       0.00000000      33.42349625
2
Properties=species:S:1:pos:R:3:forces:R:3 energy=-18.001047722611005 pbc="F F F"
Fe       0.00000000       0.00000000       0.00000000       0.00000000       0.00000000     -18.03591537
Fe       0.00000000       0.00000000       1.35575758       0.00000000       0.00000000      18.03591537
2
Properties=species:S:1:pos:R:3:forces:R:3 energy=-18.736690824347832 pbc="F F F"
Fe       0.00000000       0.00000000       0.00000000       0.00000000       0.00000000      -8.40338516
Fe       0.00000000       0.00000000       1.41454545       0.00000000       0.00000000       8.40338516
2
Properties=species:S:1:pos:R:3:forces:R:3 energy=-19.125053357241057 pbc="F F F"
Fe       0.00000000       0.00000000       0.00000000       0.00000000       0.00000000      -5.53429794
Fe       0.00000000       0.00000000       1.47333333       0.00000000       0.00000000       5.53429794
2
Properties=species:S:1:pos:R:3:forces:R:3 energy=-19.433005815988132 pbc="F F F"
Fe       0.00000000       0.00000000       0.00000000       0.00000000       0.00000000      -5.10885429
Fe       0.00000000       0.00000000       1.53212121       0.00000000       0.00000000       5.10885429
2
Properties=species:S:1:pos:R:3:forces:R:3 energy=-19.733561503085294 pbc="F F F"
Fe       0.00000000       0.00000000       0.00000000       0.00000000       0.00000000      -5.14213037
Fe       0.00000000       0.00000000       1.59090909       0.00000000       0.00000000       5.14213037
2
Properties=species:S:1:pos:R:3:forces:R:3 energy=-20.044739158489744 pbc="F F F"
Fe       0.00000000       0.00000000       0.00000000       0.00000000       0.00000000      -5.56919336
Fe       0.00000000       0.00000000       1.64969697       0.00000000       0.00000000       5.56919336
2
Properties=species:S:1:pos:R:3:forces:R:3 energy=-20.405875995841498 pbc="F F F"
Fe       0.00000000       0.00000000       0.00000000       0.00000000       0.00000000      -6.79821873
Fe       0.00000000       0.00000000       1.70848485       0.00000000       0.00000000       6.79821873
2
Properties=species:S:1:pos:R:3:forces:R:3 energy=-20.83220804194039 pbc="F F F"
Fe       0.00000000       0.00000000       0.00000000       0.00000000       0.00000000      -7.45138264
Fe       0.00000000       0.00000000       1.76727273       0.00000000       0.00000000       7.45138264
2
Properties=species:S:1:pos:R:3:forces:R:3 energy=-21.2512868347906 pbc="F F F"
Fe       0.00000000       0.00000000       0.00000000       0.00000000       0.00000000      -6.60459805
Fe       0.00000000       0.00000000       1.82606061       0.00000000       0.00000000       6.60459805
2
Properties=species:S:1:pos:R:3:forces:R:3 energy=-21.59263445141608 pbc="F F F"
Fe       0.00000000       0.00000000       0.00000000       0.00000000       0.00000000      -4.91551638
Fe       0.00000000       0.00000000       1.88484848       0.00000000       0.00000000       4.91551638
2
Properties=species:S:1:pos:R:3:forces:R:3 energy=-21.8220225604312 pbc="F F F"
Fe       0.00000000       0.00000000       0.00000000       0.00000000       0.00000000      -2.86209416
Fe       0.00000000       0.00000000       1.94363636       0.00000000       0.00000000       2.86209416
2
Properties=species:S:1:pos:R:3:forces:R:3 energy=-21.93154685614807 pbc="F F F"
Fe       0.00000000       0.00000000       0.00000000       0.00000000       0.00000000      -0.93691200
Fe       0.00000000       0.00000000       2.00242424       0.00000000       0.00000000       0.93691200
2
Properties=species:S:1:pos:R:3:forces:R:3 energy=-21.94664658622208 pbc="F F F"
Fe       0.00000000       0.00000000       0.00000000       0.00000000       0.00000000       0.26027483
Fe       0.00000000       0.00000000       2.06121212       0.00000000       0.00000000      -0.26027483
2
Properties=species:S:1:pos:R:3:forces:R:3 energy=-21.921546777999136 pbc="F F F"
Fe       0.00000000       0.00000000       0.00000000       0.00000000       0.00000000       0.43004319
Fe       0.00000000       0.00000000       2.12000000       0.00000000       0.00000000      -0.43004319
2
Properties=species:S:1:pos:R:3:forces:R:3 energy=-21.909589013643977 pbc="F F F"
Fe       0.00000000       0.00000000       0.00000000       0.00000000       0.00000000      -0.06924494
Fe       0.00000000       0.00000000       2.17878788       0.00000000       0.00000000       0.06924494
2
Properties=species:S:1:pos:R:3:forces:R:3 energy=-21.925728252108275 pbc="F F F"
Fe       0.00000000       0.00000000       0.00000000       0.00000000       0.00000000      -0.37564760
Fe       0.00000000       0.00000000       2.23757576       0.00000000       0.00000000       0.37564760
2
Properties=species:S:1:pos:R:3:forces:R:3 energy=-21.937614490452688 pbc="F F F"
Fe       0.00000000       0.00000000       0.00000000       0.00000000       0.00000000       0.10678776
Fe       0.00000000       0.00000000       2.29636364       0.00000000       0.00000000      -0.10678776
2
Properties=species:S:1:pos:R:3:forces:R:3 energy=-21.903022402492745 pbc="F F F"
Fe       0.00000000       0.00000000       0.00000000       0.00000000       0.00000000       1.08860302
Fe       0.00000000       0.00000000       2.35515152       0.00000000       0.00000000      -1.08860302
2
Properties=species:S:1:pos:R:3:forces:R:3 energy=-21.815244032203747 pbc="F F F"
Fe       0.00000000       0.00000000       0.00000000       0.00000000       0.00000000       1.80187201
Fe       0.00000000       0.00000000       2.41393939       0.00000000       0.00000000      -1.80187201
2
Properties=species:S:1:pos:R:3:forces:R:3 energy=-21.70368507896836 pbc="F F F"
Fe       0.00000000       0.00000000       0.00000000       0.00000000       0.00000000       1.89855564
Fe       0.00000000       0.00000000       2.47272727       0.00000000       0.00000000      -1.89855564
2
Properties=species:S:1:pos:R:3:forces:R:3 energy=-21.59961865172822 pbc="F F F"
Fe       0.00000000       0.00000000       0.00000000       0.00000000       0.00000000       1.60999370
Fe       0.00000000       0.00000000       2.53151515       0.00000000       0.00000000      -1.60999370
2
Properties=species:S:1:pos:R:3:forces:R:3 energy=-21.51488665072598 pbc="F F F"
Fe       0.00000000       0.00000000       0.00000000       0.00000000       0.00000000       1.28989339
Fe       0.00000000       0.00000000       2.59030303       0.00000000       0.00000000      -1.28989339
2
Properties=species:S:1:pos:R:3:forces:R:3 energy=-21.444512169288508 pbc="F F F"
Fe       0.00000000       0.00000000       0.00000000       0.00000000       0.00000000       1.13939893
Fe       0.00000000       0.00000000       2.64909091       0.00000000       0.00000000      -1.13939893
2
Properties=species:S:1:pos:R:3:forces:R:3 energy=-21.377019936979202 pbc="F F F"
Fe       0.00000000       0.00000000       0.00000000       0.00000000       0.00000000       1.18409908
Fe       0.00000000       0.00000000       2.70787879       0.00000000       0.00000000      -1.18409908
2
Properties=species:S:1:pos:R:3:forces:R:3 energy=-21.303225721807372 pbc="F F F"
Fe       0.00000000       0.00000000       0.00000000       0.00000000       0.00000000       1.33320642
Fe       0.00000000       0.00000000       2.76666667       0.00000000       0.00000000      -1.33320642
2
Properties=species:S:1:pos:R:3:forces:R:3 energy=-21.220619672291026 pbc="F F F"
Fe       0.00000000       0.00000000       0.00000000       0.00000000       0.00000000       1.46646583
Fe       0.00000000       0.00000000       2.82545455       0.00000000       0.00000000      -1.46646583
2
Properties=species:S:1:pos:R:3:forces:R:3 energy=-21.132467338825144 pbc="F F F"
Fe       0.00000000       0.00000000       0.00000000       0.00000000       0.00000000       1.51727474
Fe       0.00000000       0.00000000       2.88424242       0.00000000       0.00000000      -1.51727474
2
Properties=species:S:1:pos:R:3:forces:R:3 energy=-21.043880310800304 pbc="F F F"
Fe       0.00000000       0.00000000       0.00000000       0.00000000       0.00000000       1.48433411
Fe       0.00000000       0.00000000       2.94303030       0.00000000       0.00000000      -1.48433411
2
Properties=species:S:1:pos:R:3:forces:R:3 energy=-20.959145482696226 pbc="F F F"
Fe       0.00000000       0.00000000       0.00000000       0.00000000       0.00000000       1.39002645
Fe       0.00000000       0.00000000       3.00181818       0.00000000       0.00000000      -1.39002645
2
Properties=species:S:1:pos:R:3:forces:R:3 energy=-20.881230472614558 pbc="F F F"
Fe       0.00000000       0.00000000       0.00000000       0.00000000       0.00000000       1.25577712
Fe       0.00000000       0.00000000       3.06060606       0.00000000       0.00000000      -1.25577712
2
Properties=species:S:1:pos:R:3:forces:R:3 energy=-20.811836343776438 pbc="F F F"
Fe       0.00000000       0.00000000       0.00000000       0.00000000       0.00000000       1.10435605
Fe       0.00000000       0.00000000       3.11939394       0.00000000       0.00000000      -1.10435605
2
Properties=species:S:1:pos:R:3:forces:R:3 energy=-20.75119809287364 pbc="F F F"
Fe       0.00000000       0.00000000       0.00000000       0.00000000       0.00000000       0.96241850
Fe       0.00000000       0.00000000       3.17818182       0.00000000       0.00000000      -0.96241850
2
Properties=species:S:1:pos:R:3:forces:R:3 energy=-20.698020585834982 pbc="F F F"
Fe       0.00000000       0.00000000       0.00000000       0.00000000       0.00000000       0.85365695
Fe       0.00000000       0.00000000       3.23696970       0.00000000       0.00000000      -0.85365695
2
Properties=species:S:1:pos:R:3:forces:R:3 energy=-20.649923245658268 pbc="F F F"
Fe       0.00000000       0.00000000       0.00000000       0.00000000       0.00000000       0.79054219
Fe       0.00000000       0.00000000       3.29575758       0.00000000       0.00000000      -0.79054219
2
Properties=species:S:1:pos:R:3:forces:R:3 energy=-20.60419545433575 pbc="F F F"
Fe       0.00000000       0.00000000       0.00000000       0.00000000       0.00000000       0.77187485
Fe       0.00000000       0.00000000       3.35454545       0.00000000       0.00000000      -0.77187485
2
Properties=species:S:1:pos:R:3:forces:R:3 energy=-20.55851565655081 pbc="F F F"
Fe       0.00000000       0.00000000       0.00000000       0.00000000       0.00000000       0.78651482
Fe       0.00000000       0.00000000       3.41333333       0.00000000       0.00000000      -0.78651482
2
Properties=species:S:1:pos:R:3:forces:R:3 energy=-20.511355725507684 pbc="F F F"
Fe       0.00000000       0.00000000       0.00000000       0.00000000       0.00000000       0.81976032
Fe       0.00000000       0.00000000       3.47212121       0.00000000       0.00000000      -0.81976032
2
Properties=species:S:1:pos:R:3:forces:R:3 energy=-20.462024865212147 pbc="F F F"
Fe       0.00000000       0.00000000       0.00000000       0.00000000       0.00000000       0.85860831
Fe       0.00000000       0.00000000       3.53090909       0.00000000       0.00000000      -0.85860831
2
Properties=species:S:1:pos:R:3:forces:R:3 energy=-20.4104712177033 pbc="F F F"
Fe       0.00000000       0.00000000       0.00000000       0.00000000       0.00000000       0.89417833
Fe       0.00000000       0.00000000       3.58969697       0.00000000       0.00000000      -0.89417833
2
Properties=species:S:1:pos:R:3:forces:R:3 energy=-20.35705110396331 pbc="F F F"
Fe       0.00000000       0.00000000       0.00000000       0.00000000       0.00000000       0.92165393
Fe       0.00000000       0.00000000       3.64848485       0.00000000       0.00000000      -0.92165393
2
Properties=species:S:1:pos:R:3:forces:R:3 energy=-20.30230776197254 pbc="F F F"
Fe       0.00000000       0.00000000       0.00000000       0.00000000       0.00000000       0.93902522
Fe       0.00000000       0.00000000       3.70727273       0.00000000       0.00000000      -0.93902522
2
Properties=species:S:1:pos:R:3:forces:R:3 energy=-20.246853102181678 pbc="F F F"
Fe       0.00000000       0.00000000       0.00000000       0.00000000       0.00000000       0.94575357
Fe       0.00000000       0.00000000       3.76606061       0.00000000       0.00000000      -0.94575357
2
Properties=species:S:1:pos:R:3:forces:R:3 energy=-20.19131811644731 pbc="F F F"
Fe       0.00000000       0.00000000       0.00000000       0.00000000       0.00000000       0.94188082
Fe       0.00000000       0.00000000       3.82484848       0.00000000       0.00000000      -0.94188082
2
Properties=species:S:1:pos:R:3:forces:R:3 energy=-20.136312825294517 pbc="F F F"
Fe       0.00000000       0.00000000       0.00000000       0.00000000       0.00000000       0.92766523
Fe       0.00000000       0.00000000       3.88363636       0.00000000       0.00000000      -0.92766523
2
Properties=species:S:1:pos:R:3:forces:R:3 energy=-20.08243963569297 pbc="F F F"
Fe       0.00000000       0.00000000       0.00000000       0.00000000       0.00000000       0.90356719
Fe       0.00000000       0.00000000       3.94242424       0.00000000       0.00000000      -0.90356719
2
Properties=species:S:1:pos:R:3:forces:R:3 energy=-20.030255208339454 pbc="F F F"
Fe       0.00000000       0.00000000       0.00000000       0.00000000       0.00000000       0.87035722
Fe       0.00000000       0.00000000       4.00121212       0.00000000       0.00000000      -0.87035722
2
Properties=species:S:1:pos:R:3:forces:R:3 energy=-19.980262817175973 pbc="F F F"
Fe       0.00000000       0.00000000       0.00000000       0.00000000       0.00000000       0.82919985
Fe       0.00000000       0.00000000       4.06000000       0.00000000       0.00000000      -0.82919985
2
Properties=species:S:1:pos:R:3:forces:R:3 energy=-19.93288756969662 pbc="F F F"
Fe       0.00000000       0.00000000       0.00000000       0.00000000       0.00000000       0.78166497
Fe       0.00000000       0.00000000       4.11878788       0.00000000       0.00000000      -0.78166497
2
Properties=species:S:1:pos:R:3:forces:R:3 energy=-19.888445890953392 pbc="F F F"
Fe       0.00000000       0.00000000       0.00000000       0.00000000       0.00000000       0.72962141
Fe       0.00000000       0.00000000       4.17757576       0.00000000       0.00000000      -0.72962141
2
Properties=species:S:1:pos:R:3:forces:R:3 energy=-19.847149350924703 pbc="F F F"
Fe       0.00000000       0.00000000       0.00000000       0.00000000       0.00000000       0.67511141
Fe       0.00000000       0.00000000       4.23636364       0.00000000       0.00000000      -0.67511141
2
Properties=species:S:1:pos:R:3:forces:R:3 energy=-19.809076044782458 pbc="F F F"
Fe       0.00000000       0.00000000       0.00000000       0.00000000       0.00000000       0.62021410
Fe       0.00000000       0.00000000       4.29515152       0.00000000       0.00000000      -0.62021410
2
Properties=species:S:1:pos:R:3:forces:R:3 energy=-19.774195413766847 pbc="F F F"
Fe       0.00000000       0.00000000       0.00000000       0.00000000       0.00000000       0.56694967
Fe       0.00000000       0.00000000       4.35393939       0.00000000       0.00000000      -0.56694967
2
Properties=species:S:1:pos:R:3:forces:R:3 energy=-19.742351063209533 pbc="F F F"
Fe       0.00000000       0.00000000       0.00000000       0.00000000       0.00000000       0.51711661
Fe       0.00000000       0.00000000       4.41272727       0.00000000       0.00000000      -0.51711661
2
Properties=species:S:1:pos:R:3:forces:R:3 energy=-19.71329893168107 pbc="F F F"
Fe       0.00000000       0.00000000       0.00000000       0.00000000       0.00000000       0.47214392
Fe       0.00000000       0.00000000       4.47151515       0.00000000       0.00000000      -0.47214392
2
Properties=species:S:1:pos:R:3:forces:R:3 energy=-19.686724450792948 pbc="F F F"
Fe       0.00000000       0.00000000       0.00000000       0.00000000       0.00000000       0.43284434
Fe       0.00000000       0.00000000       4.53030303       0.00000000       0.00000000      -0.43284434
2
Properties=species:S:1:pos:R:3:forces:R:3 energy=-19.66229405153025 pbc="F F F"
Fe       0.00000000       0.00000000       0.00000000       0.00000000       0.00000000       0.39920413
Fe       0.00000000       0.00000000       4.58909091       0.00000000       0.00000000      -0.39920413
2
Properties=species:S:1:pos:R:3:forces:R:3 energy=-19.639695217780957 pbc="F F F"
Fe       0.00000000       0.00000000       0.00000000       0.00000000       0.00000000       0.37031895
Fe       0.00000000       0.00000000       4.64787879       0.00000000       0.00000000      -0.37031895
2
Properties=species:S:1:pos:R:3:forces:R:3 energy=-19.618693713922564 pbc="F F F"
Fe       0.00000000       0.00000000       0.00000000       0.00000000       0.00000000       0.34452352
Fe       0.00000000       0.00000000       4.70666667       0.00000000       0.00000000      -0.34452352
2
Properties=species:S:1:pos:R:3:forces:R:3 energy=-19.599167904426157 pbc="F F F"
Fe       0.00000000       0.00000000       0.00000000       0.00000000       0.00000000       0.31973365
Fe       0.00000000       0.00000000       4.76545455       0.00000000       0.00000000      -0.31973365
2
Properties=species:S:1:pos:R:3:forces:R:3 energy=-19.581120214579293 pbc="F F F"
Fe       0.00000000       0.00000000       0.00000000       0.00000000       0.00000000       0.29390842
Fe       0.00000000       0.00000000       4.82424242       0.00000000       0.00000000      -0.29390842
2
Properties=species:S:1:pos:R:3:forces:R:3 energy=-19.56466376479036 pbc="F F F"
Fe       0.00000000       0.00000000       0.00000000       0.00000000       0.00000000       0.26550084
Fe       0.00000000       0.00000000       4.88303030       0.00000000       0.00000000      -0.26550084
2
Properties=species:S:1:pos:R:3:forces:R:3 energy=-19.54997086188007 pbc="F F F"
Fe       0.00000000       0.00000000       0.00000000       0.00000000       0.00000000       0.23370349
Fe       0.00000000       0.00000000       4.94181818       0.00000000       0.00000000      -0.23370349
2
Properties=species:S:1:pos:R:3:forces:R:3 energy=-19.537250117233523 pbc="F F F"
Fe       0.00000000       0.00000000       0.00000000       0.00000000       0.00000000       0.19855829
Fe       0.00000000       0.00000000       5.00060606       0.00000000       0.00000000      -0.19855829
2
Properties=species:S:1:pos:R:3:forces:R:3 energy=-19.526677775121804 pbc="F F F"
Fe       0.00000000       0.00000000       0.00000000       0.00000000       0.00000000       0.16079359
Fe       0.00000000       0.00000000       5.05939394       0.00000000       0.00000000      -0.16079359
2
Properties=species:S:1:pos:R:3:forces:R:3 energy=-19.51837099239812 pbc="F F F"
Fe       0.00000000       0.00000000       0.00000000       0.00000000       0.00000000       0.12173536
Fe       0.00000000       0.00000000       5.11818182       0.00000000       0.00000000      -0.12173536
2
Properties=species:S:1:pos:R:3:forces:R:3 energy=-19.512353497510883 pbc="F F F"
Fe       0.00000000       0.00000000       0.00000000       0.00000000       0.00000000       0.08322858
Fe       0.00000000       0.00000000       5.17696970       0.00000000       0.00000000      -0.08322858
2
Properties=species:S:1:pos:R:3:forces:R:3 energy=-19.508528889206787 pbc="F F F"
Fe       0.00000000       0.00000000       0.00000000       0.00000000       0.00000000       0.04757435
Fe       0.00000000       0.00000000       5.23575758       0.00000000       0.00000000      -0.04757435
2
Properties=species:S:1:pos:R:3:forces:R:3 energy=-19.50666153453405 pbc="F F F"
Fe       0.00000000       0.00000000       0.00000000       0.00000000       0.00000000       0.01697603
Fe       0.00000000       0.00000000       5.29454545       0.00000000       0.00000000      -0.01697603
2
Properties=species:S:1:pos:R:3:forces:R:3 energy=-19.506412814802093 pbc="F F F"
Fe       0.00000000       0.00000000       0.00000000       0.00000000       0.00000000      -0.00757537
Fe       0.00000000       0.00000000       5.35333333       0.00000000       0.00000000       0.00757537
2
Properties=species:S:1:pos:R:3:forces:R:3 energy=-19.507444105776667 pbc="F F F"
Fe       0.00000000       0.00000000       0.00000000       0.00000000       0.00000000      -0.02658336
Fe       0.00000000       0.00000000       5.41212121       0.00000000       0.00000000       0.02658336
2
Properties=species:S:1:pos:R:3:forces:R:3 energy=-19.50940912690248 pbc="F F F"
Fe       0.00000000       0.00000000       0.00000000       0.00000000       0.00000000      -0.03869380
Fe       0.00000000       0.00000000       5.47090909       0.00000000       0.00000000       0.03869380
2
Properties=species:S:1:pos:R:3:forces:R:3 energy=-19.51173841249164 pbc="F F F"
Fe       0.00000000       0.00000000       0.00000000       0.00000000       0.00000000      -0.03801082
Fe       0.00000000       0.00000000       5.52969697       0.00000000       0.00000000       0.03801082
2
Properties=species:S:1:pos:R:3:forces:R:3 energy=-19.51361832217716 pbc="F F F"
Fe       0.00000000       0.00000000       0.00000000       0.00000000       0.00000000      -0.02455000
Fe       0.00000000       0.00000000       5.58848485       0.00000000       0.00000000       0.02455000
2
Properties=species:S:1:pos:R:3:forces:R:3 energy=-19.51457086460192 pbc="F F F"
Fe       0.00000000       0.00000000       0.00000000       0.00000000       0.00000000      -0.00810470
Fe       0.00000000       0.00000000       5.64727273       0.00000000       0.00000000       0.00810470
2
Properties=species:S:1:pos:R:3:forces:R:3 energy=-19.514596732727018 pbc="F F F"
Fe       0.00000000       0.00000000       0.00000000       0.00000000       0.00000000       0.00727459
Fe       0.00000000       0.00000000       5.70606061       0.00000000       0.00000000      -0.00727459
2
Properties=species:S:1:pos:R:3:forces:R:3 energy=-19.513687036836963 pbc="F F F"
Fe       0.00000000       0.00000000       0.00000000       0.00000000       0.00000000       0.02362124
Fe       0.00000000       0.00000000       5.76484848       0.00000000       0.00000000      -0.02362124
2
Properties=species:S:1:pos:R:3:forces:R:3 energy=-19.51194726081801 pbc="F F F"
Fe       0.00000000       0.00000000       0.00000000       0.00000000       0.00000000       0.03322798
Fe       0.00000000       0.00000000       5.82363636       0.00000000       0.00000000      -0.03322798
2
Properties=species:S:1:pos:R:3:forces:R:3 energy=-19.51013704657298 pbc="F F F"
Fe       0.00000000       0.00000000       0.00000000       0.00000000       0.00000000       0.02594833
Fe       0.00000000       0.00000000       5.88242424       0.00000000       0.00000000      -0.02594833
2
Properties=species:S:1:pos:R:3:forces:R:3 energy=-19.509048396783065 pbc="F F F"
Fe       0.00000000       0.00000000       0.00000000       0.00000000       0.00000000       0.01114983
Fe       0.00000000       0.00000000       5.94121212       0.00000000       0.00000000      -0.01114983
2
Properties=species:S:1:pos:R:3:forces:R:3 energy=-19.508656904370227 pbc="F F F"
Fe       0.00000000       0.00000000       0.00000000       0.00000000       0.00000000       0.00436187
Fe       0.00000000       0.00000000       6.00000000       0.00000000       0.00000000      -0.00436187
