2
Properties=species:S:1:pos:R:3:forces:R:3 energy=-203014.40298414248 pbc="F F F"
Hf       0.00000000       0.00000000       0.00000000       0.00000000       0.00000000 -201388.50000000
Hf       0.00000000       0.00000000       0.18000000       0.00000000       0.00000000  201388.50000000
2
Properties=species:S:1:pos:R:3:forces:R:3 energy=-206795.71548414248 pbc="F F F"
Hf       0.00000000       0.00000000       0.00000000       0.00000000       0.00000000   46518.99218750
Hf       0.00000000       0.00000000       0.23878788       0.00000000       0.00000000  -46518.99218750
2
Properties=species:S:1:pos:R:3:forces:R:3 energy=-198467.29360914248 pbc="F F F"
Hf       0.00000000       0.00000000       0.00000000       0.00000000       0.00000000  238893.14062500
Hf       0.00000000       0.00000000       0.29757576       0.00000000       0.00000000 -238893.14062500
2
Properties=species:S:1:pos:R:3:forces:R:3 energy=-178153.10610914248 pbc="F F F"
Hf       0.00000000       0.00000000       0.00000000       0.00000000       0.00000000  457024.90625000
Hf       0.00000000       0.00000000       0.35636364       0.00000000       0.00000000 -457024.90625000
2
Properties=species:S:1:pos:R:3:forces:R:3 energy=-144593.96548414248 pbc="F F F"
Hf       0.00000000       0.00000000       0.00000000       0.00000000       0.00000000  679860.50000000
Hf       0.00000000       0.00000000       0.41515152       0.00000000       0.00000000 -679860.50000000
2
Properties=species:S:1:pos:R:3:forces:R:3 energy=-99783.9264216409 pbc="F F F"
Hf       0.00000000       0.00000000       0.00000000       0.00000000       0.00000000  821596.87500000
Hf       0.00000000       0.00000000       0.47393939       0.00000000       0.00000000 -821596.87500000
2
Properties=species:S:1:pos:R:3:forces:R:3 energy=-52503.5826716409 pbc="F F F"
Hf       0.00000000       0.00000000       0.00000000       0.00000000       0.00000000  618896.81250000
Hf       0.00000000       0.00000000       0.53272727       0.00000000       0.00000000 -618896.81250000
2
Properties=species:S:1:pos:R:3:forces:R:3 energy=-20104.410796639317 pbc="F F F"
Hf       0.00000000       0.00000000       0.00000000       0.00000000       0.00000000  457902.62500000
Hf       0.00000000       0.00000000       0.59151515       0.00000000       0.00000000 -457902.62500000
2
Properties=species:S:1:pos:R:3:forces:R:3 energy=-3418.757232184608 pbc="F F F"
Hf       0.00000000       0.00000000       0.00000000       0.00000000       0.00000000  156141.10937500
Hf       0.00000000       0.00000000       0.65030303       0.00000000       0.00000000 -156141.10937500
2
Properties=species:S:1:pos:R:3:forces:R:3 energy=1286.7450871560811 pbc="F F F"
Hf       0.00000000       0.00000000       0.00000000       0.00000000       0.00000000   19750.27734375
Hf       0.00000000       0.00000000       0.70909091       0.00000000       0.00000000  -19750.27734375
2
Properties=species:S:1:pos:R:3:forces:R:3 energy=2458.1905217311455 pbc="F F F"
Hf       0.00000000       0.00000000       0.00000000       0.00000000       0.00000000   12388.73242188
Hf       0.00000000       0.00000000       0.76787879       0.00000000       0.00000000  -12388.73242188
2
Properties=species:S:1:pos:R:3:forces:R:3 energy=889.1400456648463 pbc="F F F"
Hf       0.00000000       0.00000000       0.00000000       0.00000000       0.00000000  -23231.96289062
Hf       0.00000000       0.00000000       0.82666667       0.00000000       0.00000000   23231.96289062
2
Properties=species:S:1:pos:R:3:forces:R:3 energy=13.003548177583106 pbc="F F F"
Hf       0.00000000       0.00000000       0.00000000       0.00000000       0.00000000   -3237.98510742
Hf       0.00000000       0.00000000       0.88545455       0.00000000       0.00000000    3237.98510742
2
Properties=species:S:1:pos:R:3:forces:R:3 energy=-247.31137032385223 pbc="F F F"
Hf       0.00000000       0.00000000       0.00000000       0.00000000       0.00000000     940.86077881
Hf       0.00000000       0.00000000       0.94424242       0.00000000       0.00000000    -940.86077881
2
Properties=species:S:1:pos:R:3:forces:R:3 energy=-236.07488959116273 pbc="F F F"
Hf       0.00000000       0.00000000       0.00000000       0.00000000       0.00000000     269.94818115
Hf       0.00000000       0.00000000       1.00303030       0.00000000       0.00000000    -269.94818115
2
Properties=species:S:1:pos:R:3:forces:R:3 energy=-211.22625675015232 pbc="F F F"
Hf       0.00000000       0.00000000       0.00000000       0.00000000       0.00000000     485.14614868
Hf       0.00000000       0.00000000       1.06181818       0.00000000       0.00000000    -485.14614868
2
Properties=species:S:1:pos:R:3:forces:R:3 energy=-184.4935601813112 pbc="F F F"
Hf       0.00000000       0.00000000       0.00000000       0.00000000       0.00000000     415.57110596
Hf       0.00000000       0.00000000       1.12060606       0.00000000       0.00000000    -415.57110596
2
Properties=species:S:1:pos:R:3:forces:R:3 energy=-162.6914361079805 pbc="F F F"
Hf       0.00000000       0.00000000       0.00000000       0.00000000       0.00000000     323.59432983
Hf       0.00000000       0.00000000       1.17939394       0.00000000       0.00000000    -323.59432983
2
Properties=species:S:1:pos:R:3:forces:R:3 energy=-146.42561268115819 pbc="F F F"
Hf       0.00000000       0.00000000       0.00000000       0.00000000       0.00000000     234.93748474
Hf       0.00000000       0.00000000       1.23818182       0.00000000       0.00000000    -234.93748474
2
Properties=species:S:1:pos:R:3:forces:R:3 energy=-133.94618144882693 pbc="F F F"
Hf       0.00000000       0.00000000       0.00000000       0.00000000       0.00000000     200.22035217
Hf       0.00000000       0.00000000       1.29696970       0.00000000       0.00000000    -200.22035217
2
Properties=species:S:1:pos:R:3:forces:R:3 energy=-122.18688111710695 pbc="F F F"
Hf       0.00000000       0.00000000       0.00000000       0.00000000       0.00000000     200.00675964
Hf       0.00000000       0.00000000       1.35575758       0.00000000       0.00000000    -200.00675964
2
Properties=species:S:1:pos:R:3:forces:R:3 energy=-110.75131122958634 pbc="F F F"
Hf       0.00000000       0.00000000       0.00000000       0.00000000       0.00000000     185.62026978
Hf       0.00000000       0.00000000       1.41454545       0.00000000       0.00000000    -185.62026978
2
Properties=species:S:1:pos:R:3:forces:R:3 energy=-100.70809055513547 pbc="F F F"
Hf       0.00000000       0.00000000       0.00000000       0.00000000       0.00000000     153.55969238
Hf       0.00000000       0.00000000       1.47333333       0.00000000       0.00000000    -153.55969238
2
Properties=species:S:1:pos:R:3:forces:R:3 energy=-92.92676407191279 pbc="F F F"
Hf       0.00000000       0.00000000       0.00000000       0.00000000       0.00000000     109.99696350
Hf       0.00000000       0.00000000       1.53212121       0.00000000       0.00000000    -109.99696350
2
Properties=species:S:1:pos:R:3:forces:R:3 energy=-87.77124626253678 pbc="F F F"
Hf       0.00000000       0.00000000       0.00000000       0.00000000       0.00000000      66.74519348
Hf       0.00000000       0.00000000       1.59090909       0.00000000       0.00000000     -66.74519348
2
Properties=species:S:1:pos:R:3:forces:R:3 energy=-84.83464625311507 pbc="F F F"
Hf       0.00000000       0.00000000       0.00000000       0.00000000       0.00000000      35.22410202
Hf       0.00000000       0.00000000       1.64969697       0.00000000       0.00000000     -35.22410202
2
Properties=species:S:1:pos:R:3:forces:R:3 energy=-83.44012229830436 pbc="F F F"
Hf       0.00000000       0.00000000       0.00000000       0.00000000       0.00000000      13.73483753
Hf       0.00000000       0.00000000       1.70848485       0.00000000       0.00000000     -13.73483753
2
Properties=species:S:1:pos:R:3:forces:R:3 energy=-82.9976627919215 pbc="F F F"
Hf       0.00000000       0.00000000       0.00000000       0.00000000       0.00000000       3.45455432
Hf       0.00000000       0.00000000       1.76727273       0.00000000       0.00000000      -3.45455432
2
Properties=species:S:1:pos:R:3:forces:R:3 energy=-82.81673122939937 pbc="F F F"
Hf       0.00000000       0.00000000       0.00000000       0.00000000       0.00000000       3.96420598
Hf       0.00000000       0.00000000       1.82606061       0.00000000       0.00000000      -3.96420598
2
Properties=species:S:1:pos:R:3:forces:R:3 energy=-82.47036379191431 pbc="F F F"
Hf       0.00000000       0.00000000       0.00000000       0.00000000       0.00000000       7.65348101
Hf       0.00000000       0.00000000       1.88484848       0.00000000       0.00000000      -7.65348101
2
Properties=species:S:1:pos:R:3:forces:R:3 energy=-81.98068571647937 pbc="F F F"
Hf       0.00000000       0.00000000       0.00000000       0.00000000       0.00000000       8.38945198
Hf       0.00000000       0.00000000       1.94363636       0.00000000       0.00000000      -8.38945198
2
Properties=species:S:1:pos:R:3:forces:R:3 energy=-81.52827714146275 pbc="F F F"
Hf       0.00000000       0.00000000       0.00000000       0.00000000       0.00000000       6.88219166
Hf       0.00000000       0.00000000       2.00242424       0.00000000       0.00000000      -6.88219166
2
Properties=species:S:1:pos:R:3:forces:R:3 energy=-81.17218958053633 pbc="F F F"
Hf       0.00000000       0.00000000       0.00000000       0.00000000       0.00000000       5.24706602
Hf       0.00000000       0.00000000       2.06121212       0.00000000       0.00000000      -5.24706602
2
Properties=species:S:1:pos:R:3:forces:R:3 energy=-80.91201869796467 pbc="F F F"
Hf       0.00000000       0.00000000       0.00000000       0.00000000       0.00000000       3.59672689
Hf       0.00000000       0.00000000       2.12000000       0.00000000       0.00000000      -3.59672689
2
Properties=species:S:1:pos:R:3:forces:R:3 energy=-80.74588771654611 pbc="F F F"
Hf       0.00000000       0.00000000       0.00000000       0.00000000       0.00000000       2.13150406
Hf       0.00000000       0.00000000       2.17878788       0.00000000       0.00000000      -2.13150406
2
Properties=species:S:1:pos:R:3:forces:R:3 energy=-80.6484900478701 pbc="F F F"
Hf       0.00000000       0.00000000       0.00000000       0.00000000       0.00000000       1.30424368
Hf       0.00000000       0.00000000       2.23757576       0.00000000       0.00000000      -1.30424368
2
Properties=species:S:1:pos:R:3:forces:R:3 energy=-80.58001570213388 pbc="F F F"
Hf       0.00000000       0.00000000       0.00000000       0.00000000       0.00000000       1.10555351
Hf       0.00000000       0.00000000       2.29636364       0.00000000       0.00000000      -1.10555351
2
Properties=species:S:1:pos:R:3:forces:R:3 energy=-80.51253382313048 pbc="F F F"
Hf       0.00000000       0.00000000       0.00000000       0.00000000       0.00000000       1.21527600
Hf       0.00000000       0.00000000       2.35515152       0.00000000       0.00000000      -1.21527600
2
Properties=species:S:1:pos:R:3:forces:R:3 energy=-80.43619544143955 pbc="F F F"
Hf       0.00000000       0.00000000       0.00000000       0.00000000       0.00000000       1.37902427
Hf       0.00000000       0.00000000       2.41393939       0.00000000       0.00000000      -1.37902427
2
Properties=species:S:1:pos:R:3:forces:R:3 energy=-80.35105489891428 pbc="F F F"
Hf       0.00000000       0.00000000       0.00000000       0.00000000       0.00000000       1.51276922
Hf       0.00000000       0.00000000       2.47272727       0.00000000       0.00000000      -1.51276922
2
Properties=species:S:1:pos:R:3:forces:R:3 energy=-80.25848694772823 pbc="F F F"
Hf       0.00000000       0.00000000       0.00000000       0.00000000       0.00000000       1.63863456
Hf       0.00000000       0.00000000       2.53151515       0.00000000       0.00000000      -1.63863456
2
Properties=species:S:1:pos:R:3:forces:R:3 energy=-80.15782243526925 pbc="F F F"
Hf       0.00000000       0.00000000       0.00000000       0.00000000       0.00000000       1.79207325
Hf       0.00000000       0.00000000       2.59030303       0.00000000       0.00000000      -1.79207325
2
Properties=species:S:1:pos:R:3:forces:R:3 energy=-80.04723361168027 pbc="F F F"
Hf       0.00000000       0.00000000       0.00000000       0.00000000       0.00000000       1.97231364
Hf       0.00000000       0.00000000       2.64909091       0.00000000       0.00000000      -1.97231364
2
Properties=species:S:1:pos:R:3:forces:R:3 energy=-79.92617601920226 pbc="F F F"
Hf       0.00000000       0.00000000       0.00000000       0.00000000       0.00000000       2.13890100
Hf       0.00000000       0.00000000       2.70787879       0.00000000       0.00000000      -2.13890100
2
Properties=species:S:1:pos:R:3:forces:R:3 energy=-79.79713619372986 pbc="F F F"
Hf       0.00000000       0.00000000       0.00000000       0.00000000       0.00000000       2.23592615
Hf       0.00000000       0.00000000       2.76666667       0.00000000       0.00000000      -2.23592615
2
Properties=species:S:1:pos:R:3:forces:R:3 energy=-79.66515184371724 pbc="F F F"
Hf       0.00000000       0.00000000       0.00000000       0.00000000       0.00000000       2.24017167
Hf       0.00000000       0.00000000       2.82545455       0.00000000       0.00000000      -2.24017167
2
Properties=species:S:1:pos:R:3:forces:R:3 energy=-79.53486026998263 pbc="F F F"
Hf       0.00000000       0.00000000       0.00000000       0.00000000       0.00000000       2.18840003
Hf       0.00000000       0.00000000       2.88424242       0.00000000       0.00000000      -2.18840003
2
Properties=species:S:1:pos:R:3:forces:R:3 energy=-79.40773769381438 pbc="F F F"
Hf       0.00000000       0.00000000       0.00000000       0.00000000       0.00000000       2.14100814
Hf       0.00000000       0.00000000       2.94303030       0.00000000       0.00000000      -2.14100814
2
Properties=species:S:1:pos:R:3:forces:R:3 energy=-79.28245089257705 pbc="F F F"
Hf       0.00000000       0.00000000       0.00000000       0.00000000       0.00000000       2.12668514
Hf       0.00000000       0.00000000       3.00181818       0.00000000       0.00000000      -2.12668514
2
Properties=species:S:1:pos:R:3:forces:R:3 energy=-79.15738109110994 pbc="F F F"
Hf       0.00000000       0.00000000       0.00000000       0.00000000       0.00000000       2.12725830
Hf       0.00000000       0.00000000       3.06060606       0.00000000       0.00000000      -2.12725830
2
Properties=species:S:1:pos:R:3:forces:R:3 energy=-79.03288230576086 pbc="F F F"
Hf       0.00000000       0.00000000       0.00000000       0.00000000       0.00000000       2.09987164
Hf       0.00000000       0.00000000       3.11939394       0.00000000       0.00000000      -2.09987164
2
Properties=species:S:1:pos:R:3:forces:R:3 energy=-78.91185676023224 pbc="F F F"
Hf       0.00000000       0.00000000       0.00000000       0.00000000       0.00000000       2.00310802
Hf       0.00000000       0.00000000       3.17818182       0.00000000       0.00000000      -2.00310802
2
Properties=species:S:1:pos:R:3:forces:R:3 energy=-78.79925869811561 pbc="F F F"
Hf       0.00000000       0.00000000       0.00000000       0.00000000       0.00000000       1.81049502
Hf       0.00000000       0.00000000       3.23696970       0.00000000       0.00000000      -1.81049502
2
Properties=species:S:1:pos:R:3:forces:R:3 energy=-78.70095910404399 pbc="F F F"
Hf       0.00000000       0.00000000       0.00000000       0.00000000       0.00000000       1.51848078
Hf       0.00000000       0.00000000       3.29575758       0.00000000       0.00000000      -1.51848078
2
Properties=species:S:1:pos:R:3:forces:R:3 energy=-78.62210109994001 pbc="F F F"
Hf       0.00000000       0.00000000       0.00000000       0.00000000       0.00000000       1.15734947
Hf       0.00000000       0.00000000       3.35454545       0.00000000       0.00000000      -1.15734947
2
Properties=species:S:1:pos:R:3:forces:R:3 energy=-78.5648925653335 pbc="F F F"
Hf       0.00000000       0.00000000       0.00000000       0.00000000       0.00000000       0.79661685
Hf       0.00000000       0.00000000       3.41333333       0.00000000       0.00000000      -0.79661685
2
Properties=species:S:1:pos:R:3:forces:R:3 energy=-78.52664099833756 pbc="F F F"
Hf       0.00000000       0.00000000       0.00000000       0.00000000       0.00000000       0.52725565
Hf       0.00000000       0.00000000       3.47212121       0.00000000       0.00000000      -0.52725565
2
Properties=species:S:1:pos:R:3:forces:R:3 energy=-78.4996829942022 pbc="F F F"
Hf       0.00000000       0.00000000       0.00000000       0.00000000       0.00000000       0.41981056
Hf       0.00000000       0.00000000       3.53090909       0.00000000       0.00000000      -0.41981056
2
Properties=species:S:1:pos:R:3:forces:R:3 energy=-78.47382471967275 pbc="F F F"
Hf       0.00000000       0.00000000       0.00000000       0.00000000       0.00000000       0.48654729
Hf       0.00000000       0.00000000       3.58969697       0.00000000       0.00000000      -0.48654729
2
Properties=species:S:1:pos:R:3:forces:R:3 energy=-78.44002069656011 pbc="F F F"
Hf       0.00000000       0.00000000       0.00000000       0.00000000       0.00000000       0.67779547
Hf       0.00000000       0.00000000       3.64848485       0.00000000       0.00000000      -0.67779547
2
Properties=species:S:1:pos:R:3:forces:R:3 energy=-78.39329614050372 pbc="F F F"
Hf       0.00000000       0.00000000       0.00000000       0.00000000       0.00000000       0.91171896
Hf       0.00000000       0.00000000       3.70727273       0.00000000       0.00000000      -0.91171896
2
Properties=species:S:1:pos:R:3:forces:R:3 energy=-78.3334965109557 pbc="F F F"
Hf       0.00000000       0.00000000       0.00000000       0.00000000       0.00000000       1.11218011
Hf       0.00000000       0.00000000       3.76606061       0.00000000       0.00000000      -1.11218011
2
Properties=species:S:1:pos:R:3:forces:R:3 energy=-78.26411798872768 pbc="F F F"
Hf       0.00000000       0.00000000       0.00000000       0.00000000       0.00000000       1.23300946
Hf       0.00000000       0.00000000       3.82484848       0.00000000       0.00000000      -1.23300946
2
Properties=species:S:1:pos:R:3:forces:R:3 energy=-78.19031860364338 pbc="F F F"
Hf       0.00000000       0.00000000       0.00000000       0.00000000       0.00000000       1.26338577
Hf       0.00000000       0.00000000       3.88363636       0.00000000       0.00000000      -1.26338577
2
Properties=species:S:1:pos:R:3:forces:R:3 energy=-78.11703463573707 pbc="F F F"
Hf       0.00000000       0.00000000       0.00000000       0.00000000       0.00000000       1.21953046
Hf       0.00000000       0.00000000       3.94242424       0.00000000       0.00000000      -1.21953046
2
Properties=species:S:1:pos:R:3:forces:R:3 energy=-78.0478136568472 pbc="F F F"
Hf       0.00000000       0.00000000       0.00000000       0.00000000       0.00000000       1.13072705
Hf       0.00000000       0.00000000       4.00121212       0.00000000       0.00000000      -1.13072705
2
Properties=species:S:1:pos:R:3:forces:R:3 energy=-77.98438736530214 pbc="F F F"
Hf       0.00000000       0.00000000       0.00000000       0.00000000       0.00000000       1.02663064
Hf       0.00000000       0.00000000       4.06000000       0.00000000       0.00000000      -1.02663064
2
Properties=species:S:1:pos:R:3:forces:R:3 energy=-77.92696155201362 pbc="F F F"
Hf       0.00000000       0.00000000       0.00000000       0.00000000       0.00000000       0.92966163
Hf       0.00000000       0.00000000       4.11878788       0.00000000       0.00000000      -0.92966163
2
Properties=species:S:1:pos:R:3:forces:R:3 energy=-77.8746891435285 pbc="F F F"
Hf       0.00000000       0.00000000       0.00000000       0.00000000       0.00000000       0.85239846
Hf       0.00000000       0.00000000       4.17757576       0.00000000       0.00000000      -0.85239846
2
Properties=species:S:1:pos:R:3:forces:R:3 energy=-77.82628055200736 pbc="F F F"
Hf       0.00000000       0.00000000       0.00000000       0.00000000       0.00000000       0.79820740
Hf       0.00000000       0.00000000       4.23636364       0.00000000       0.00000000      -0.79820740
2
Properties=species:S:1:pos:R:3:forces:R:3 energy=-77.78045380475011 pbc="F F F"
Hf       0.00000000       0.00000000       0.00000000       0.00000000       0.00000000       0.76323372
Hf       0.00000000       0.00000000       4.29515152       0.00000000       0.00000000      -0.76323372
2
Properties=species:S:1:pos:R:3:forces:R:3 energy=-77.7363312996381 pbc="F F F"
Hf       0.00000000       0.00000000       0.00000000       0.00000000       0.00000000       0.73885947
Hf       0.00000000       0.00000000       4.35393939       0.00000000       0.00000000      -0.73885947
2
Properties=species:S:1:pos:R:3:forces:R:3 energy=-77.69359236451436 pbc="F F F"
Hf       0.00000000       0.00000000       0.00000000       0.00000000       0.00000000       0.71418071
Hf       0.00000000       0.00000000       4.41272727       0.00000000       0.00000000      -0.71418071
2
Properties=species:S:1:pos:R:3:forces:R:3 energy=-77.65258008613004 pbc="F F F"
Hf       0.00000000       0.00000000       0.00000000       0.00000000       0.00000000       0.67858863
Hf       0.00000000       0.00000000       4.47151515       0.00000000       0.00000000      -0.67858863
2
Properties=species:S:1:pos:R:3:forces:R:3 energy=-77.61417923824804 pbc="F F F"
Hf       0.00000000       0.00000000       0.00000000       0.00000000       0.00000000       0.62421840
Hf       0.00000000       0.00000000       4.53030303       0.00000000       0.00000000      -0.62421840
2
Properties=species:S:1:pos:R:3:forces:R:3 energy=-77.57961792688857 pbc="F F F"
Hf       0.00000000       0.00000000       0.00000000       0.00000000       0.00000000       0.54794818
Hf       0.00000000       0.00000000       4.58909091       0.00000000       0.00000000      -0.54794818
2
Properties=species:S:1:pos:R:3:forces:R:3 energy=-77.5501318795469 pbc="F F F"
Hf       0.00000000       0.00000000       0.00000000       0.00000000       0.00000000       0.45237088
Hf       0.00000000       0.00000000       4.64787879       0.00000000       0.00000000      -0.45237088
2
Properties=species:S:1:pos:R:3:forces:R:3 energy=-77.52665929158668 pbc="F F F"
Hf       0.00000000       0.00000000       0.00000000       0.00000000       0.00000000       0.34522122
Hf       0.00000000       0.00000000       4.70666667       0.00000000       0.00000000      -0.34522122
2
Properties=species:S:1:pos:R:3:forces:R:3 energy=-77.50955852280337 pbc="F F F"
Hf       0.00000000       0.00000000       0.00000000       0.00000000       0.00000000       0.23737228
Hf       0.00000000       0.00000000       4.76545455       0.00000000       0.00000000      -0.23737228
2
Properties=species:S:1:pos:R:3:forces:R:3 energy=-77.4985470860265 pbc="F F F"
Hf       0.00000000       0.00000000       0.00000000       0.00000000       0.00000000       0.13988742
Hf       0.00000000       0.00000000       4.82424242       0.00000000       0.00000000      -0.13988742
2
Properties=species:S:1:pos:R:3:forces:R:3 energy=-77.49273977191766 pbc="F F F"
Hf       0.00000000       0.00000000       0.00000000       0.00000000       0.00000000       0.06136520
Hf       0.00000000       0.00000000       4.88303030       0.00000000       0.00000000      -0.06136520
2
Properties=species:S:1:pos:R:3:forces:R:3 energy=-77.49086992041879 pbc="F F F"
Hf       0.00000000       0.00000000       0.00000000       0.00000000       0.00000000       0.00620921
Hf       0.00000000       0.00000000       4.94181818       0.00000000       0.00000000      -0.00620921
2
Properties=species:S:1:pos:R:3:forces:R:3 energy=-77.49154118760393 pbc="F F F"
Hf       0.00000000       0.00000000       0.00000000       0.00000000       0.00000000      -0.02544981
Hf       0.00000000       0.00000000       5.00060606       0.00000000       0.00000000       0.02544981
2
Properties=species:S:1:pos:R:3:forces:R:3 energy=-77.49346406007746 pbc="F F F"
Hf       0.00000000       0.00000000       0.00000000       0.00000000       0.00000000      -0.03681675
Hf       0.00000000       0.00000000       5.05939394       0.00000000       0.00000000       0.03681675
2
Properties=species:S:1:pos:R:3:forces:R:3 energy=-77.49557029905996 pbc="F F F"
Hf       0.00000000       0.00000000       0.00000000       0.00000000       0.00000000      -0.03283976
Hf       0.00000000       0.00000000       5.11818182       0.00000000       0.00000000       0.03283976
2
Properties=species:S:1:pos:R:3:forces:R:3 energy=-77.49712738289004 pbc="F F F"
Hf       0.00000000       0.00000000       0.00000000       0.00000000       0.00000000      -0.01887597
Hf       0.00000000       0.00000000       5.17696970       0.00000000       0.00000000       0.01887597
2
Properties=species:S:1:pos:R:3:forces:R:3 energy=-77.49769273540886 pbc="F F F"
Hf       0.00000000       0.00000000       0.00000000       0.00000000       0.00000000      -0.00005296
Hf       0.00000000       0.00000000       5.23575758       0.00000000       0.00000000       0.00005296
2
Properties=species:S:1:pos:R:3:forces:R:3 energy=-77.497136610976 pbc="F F F"
Hf       0.00000000       0.00000000       0.00000000       0.00000000       0.00000000       0.01881292
Hf       0.00000000       0.00000000       5.29454545       0.00000000       0.00000000      -0.01881292
2
Properties=species:S:1:pos:R:3:forces:R:3 energy=-77.49555055757408 pbc="F F F"
Hf       0.00000000       0.00000000       0.00000000       0.00000000       0.00000000       0.03435130
Hf       0.00000000       0.00000000       5.35333333       0.00000000       0.00000000      -0.03435130
2
Properties=species:S:1:pos:R:3:forces:R:3 energy=-77.49312533224114 pbc="F F F"
Hf       0.00000000       0.00000000       0.00000000       0.00000000       0.00000000       0.04844913
Hf       0.00000000       0.00000000       5.41212121       0.00000000       0.00000000      -0.04844913
2
Properties=species:S:1:pos:R:3:forces:R:3 energy=-77.48974655583174 pbc="F F F"
Hf       0.00000000       0.00000000       0.00000000       0.00000000       0.00000000       0.06760494
Hf       0.00000000       0.00000000       5.47090909       0.00000000       0.00000000      -0.06760494
2
Properties=species:S:1:pos:R:3:forces:R:3 energy=-77.48516255494494 pbc="F F F"
Hf       0.00000000       0.00000000       0.00000000       0.00000000       0.00000000       0.08686402
Hf       0.00000000       0.00000000       5.52969697       0.00000000       0.00000000      -0.08686402
2
Properties=species:S:1:pos:R:3:forces:R:3 energy=-77.47985412715602 pbc="F F F"
Hf       0.00000000       0.00000000       0.00000000       0.00000000       0.00000000       0.09062143
Hf       0.00000000       0.00000000       5.58848485       0.00000000       0.00000000      -0.09062143
2
Properties=species:S:1:pos:R:3:forces:R:3 energy=-77.47478275199003 pbc="F F F"
Hf       0.00000000       0.00000000       0.00000000       0.00000000       0.00000000       0.08130808
Hf       0.00000000       0.00000000       5.64727273       0.00000000       0.00000000      -0.08130808
2
Properties=species:S:1:pos:R:3:forces:R:3 energy=-77.47020804902469 pbc="F F F"
Hf       0.00000000       0.00000000       0.00000000       0.00000000       0.00000000       0.07606071
Hf       0.00000000       0.00000000       5.70606061       0.00000000       0.00000000      -0.07606071
2
Properties=species:S:1:pos:R:3:forces:R:3 energy=-77.46564200627489 pbc="F F F"
Hf       0.00000000       0.00000000       0.00000000       0.00000000       0.00000000       0.07931793
Hf       0.00000000       0.00000000       5.76484848       0.00000000       0.00000000      -0.07931793
2
Properties=species:S:1:pos:R:3:forces:R:3 energy=-77.46111544780553 pbc="F F F"
Hf       0.00000000       0.00000000       0.00000000       0.00000000       0.00000000       0.07112317
Hf       0.00000000       0.00000000       5.82363636       0.00000000       0.00000000      -0.07112317
2
Properties=species:S:1:pos:R:3:forces:R:3 energy=-77.45768920237319 pbc="F F F"
Hf       0.00000000       0.00000000       0.00000000       0.00000000       0.00000000       0.04371450
Hf       0.00000000       0.00000000       5.88242424       0.00000000       0.00000000      -0.04371450
2
Properties=species:S:1:pos:R:3:forces:R:3 energy=-77.45598927076355 pbc="F F F"
Hf       0.00000000       0.00000000       0.00000000       0.00000000       0.00000000       0.01557679
Hf       0.00000000       0.00000000       5.94121212       0.00000000       0.00000000      -0.01557679
2
Properties=species:S:1:pos:R:3:forces:R:3 energy=-77.4555125334659 pbc="F F F"
Hf       0.00000000       0.00000000       0.00000000       0.00000000       0.00000000       0.00438702
Hf       0.00000000       0.00000000       6.00000000       0.00000000       0.00000000      -0.00438702
