2
Properties=species:S:1:pos:R:3:forces:R:3 energy=16111.825800412898 pbc="F F F"
Hg       0.00000000       0.00000000       0.00000000       0.00000000       0.00000000 -290869.37500000
Hg       0.00000000       0.00000000       0.18000000       0.00000000       0.00000000  290869.37500000
2
Properties=species:S:1:pos:R:3:forces:R:3 energy=6002.9366402566475 pbc="F F F"
Hg       0.00000000       0.00000000       0.00000000       0.00000000       0.00000000  -94702.32812500
Hg       0.00000000       0.00000000       0.23878788       0.00000000       0.00000000   94702.32812500
2
Properties=species:S:1:pos:R:3:forces:R:3 energy=2483.603388303523 pbc="F F F"
Hg       0.00000000       0.00000000       0.00000000       0.00000000       0.00000000  -35403.86328125
Hg       0.00000000       0.00000000       0.29757576       0.00000000       0.00000000   35403.86328125
2
Properties=species:S:1:pos:R:3:forces:R:3 energy=1145.5310006090021 pbc="F F F"
Hg       0.00000000       0.00000000       0.00000000       0.00000000       0.00000000  -13381.41894531
Hg       0.00000000       0.00000000       0.35636364       0.00000000       0.00000000   13381.41894531
2
Properties=species:S:1:pos:R:3:forces:R:3 energy=673.8723092027521 pbc="F F F"
Hg       0.00000000       0.00000000       0.00000000       0.00000000       0.00000000   -3891.15844727
Hg       0.00000000       0.00000000       0.41515152       0.00000000       0.00000000    3891.15844727
2
Properties=species:S:1:pos:R:3:forces:R:3 energy=589.138910766836 pbc="F F F"
Hg       0.00000000       0.00000000       0.00000000       0.00000000       0.00000000     406.18212891
Hg       0.00000000       0.00000000       0.47393939       0.00000000       0.00000000    -406.18212891
2
Properties=species:S:1:pos:R:3:forces:R:3 energy=636.86205529967 pbc="F F F"
Hg       0.00000000       0.00000000       0.00000000       0.00000000       0.00000000     966.34881592
Hg       0.00000000       0.00000000       0.53272727       0.00000000       0.00000000    -966.34881592
2
Properties=species:S:1:pos:R:3:forces:R:3 energy=618.3697457333172 pbc="F F F"
Hg       0.00000000       0.00000000       0.00000000       0.00000000       0.00000000    -911.18548584
Hg       0.00000000       0.00000000       0.59151515       0.00000000       0.00000000     911.18548584
2
Properties=species:S:1:pos:R:3:forces:R:3 energy=551.670282848236 pbc="F F F"
Hg       0.00000000       0.00000000       0.00000000       0.00000000       0.00000000   -1321.35668945
Hg       0.00000000       0.00000000       0.65030303       0.00000000       0.00000000    1321.35668945
2
Properties=species:S:1:pos:R:3:forces:R:3 energy=474.2102608850832 pbc="F F F"
Hg       0.00000000       0.00000000       0.00000000       0.00000000       0.00000000   -1416.26660156
Hg       0.00000000       0.00000000       0.70909091       0.00000000       0.00000000    1416.26660156
2
Properties=species:S:1:pos:R:3:forces:R:3 energy=405.4041085555884 pbc="F F F"
Hg       0.00000000       0.00000000       0.00000000       0.00000000       0.00000000    -800.70678711
Hg       0.00000000       0.00000000       0.76787879       0.00000000       0.00000000     800.70678711
2
Properties=species:S:1:pos:R:3:forces:R:3 energy=362.5393014480649 pbc="F F F"
Hg       0.00000000       0.00000000       0.00000000       0.00000000       0.00000000    -787.94250488
Hg       0.00000000       0.00000000       0.82666667       0.00000000       0.00000000     787.94250488
2
Properties=species:S:1:pos:R:3:forces:R:3 energy=311.01714571723244 pbc="F F F"
Hg       0.00000000       0.00000000       0.00000000       0.00000000       0.00000000    -934.33166504
Hg       0.00000000       0.00000000       0.88545455       0.00000000       0.00000000     934.33166504
2
Properties=species:S:1:pos:R:3:forces:R:3 energy=253.6249491031407 pbc="F F F"
Hg       0.00000000       0.00000000       0.00000000       0.00000000       0.00000000   -1001.06854248
Hg       0.00000000       0.00000000       0.94424242       0.00000000       0.00000000    1001.06854248
2
Properties=species:S:1:pos:R:3:forces:R:3 energy=195.3096415445579 pbc="F F F"
Hg       0.00000000       0.00000000       0.00000000       0.00000000       0.00000000    -980.83746338
Hg       0.00000000       0.00000000       1.00303030       0.00000000       0.00000000     980.83746338
2
Properties=species:S:1:pos:R:3:forces:R:3 energy=139.05649831241462 pbc="F F F"
Hg       0.00000000       0.00000000       0.00000000       0.00000000       0.00000000    -919.28137207
Hg       0.00000000       0.00000000       1.06181818       0.00000000       0.00000000     919.28137207
2
Properties=species:S:1:pos:R:3:forces:R:3 energy=89.05996216127798 pbc="F F F"
Hg       0.00000000       0.00000000       0.00000000       0.00000000       0.00000000    -768.99664307
Hg       0.00000000       0.00000000       1.12060606       0.00000000       0.00000000     768.99664307
2
Properties=species:S:1:pos:R:3:forces:R:3 energy=49.264933609386986 pbc="F F F"
Hg       0.00000000       0.00000000       0.00000000       0.00000000       0.00000000    -587.55523682
Hg       0.00000000       0.00000000       1.17939394       0.00000000       0.00000000     587.55523682
2
Properties=species:S:1:pos:R:3:forces:R:3 energy=18.60250397404689 pbc="F F F"
Hg       0.00000000       0.00000000       0.00000000       0.00000000       0.00000000    -464.10229492
Hg       0.00000000       0.00000000       1.23818182       0.00000000       0.00000000     464.10229492
2
Properties=species:S:1:pos:R:3:forces:R:3 energy=-5.422550737430095 pbc="F F F"
Hg       0.00000000       0.00000000       0.00000000       0.00000000       0.00000000    -355.20022583
Hg       0.00000000       0.00000000       1.29696970       0.00000000       0.00000000     355.20022583
2
Properties=species:S:1:pos:R:3:forces:R:3 energy=-23.48950602427604 pbc="F F F"
Hg       0.00000000       0.00000000       0.00000000       0.00000000       0.00000000    -264.39416504
Hg       0.00000000       0.00000000       1.35575758       0.00000000       0.00000000     264.39416504
2
Properties=species:S:1:pos:R:3:forces:R:3 energy=-37.25542440829701 pbc="F F F"
Hg       0.00000000       0.00000000       0.00000000       0.00000000       0.00000000    -209.60734558
Hg       0.00000000       0.00000000       1.41454545       0.00000000       0.00000000     209.60734558
2
Properties=species:S:1:pos:R:3:forces:R:3 energy=-48.542540983451644 pbc="F F F"
Hg       0.00000000       0.00000000       0.00000000       0.00000000       0.00000000    -175.88514709
Hg       0.00000000       0.00000000       1.47333333       0.00000000       0.00000000     175.88514709
2
Properties=species:S:1:pos:R:3:forces:R:3 energy=-57.992316152601994 pbc="F F F"
Hg       0.00000000       0.00000000       0.00000000       0.00000000       0.00000000    -145.71325684
Hg       0.00000000       0.00000000       1.53212121       0.00000000       0.00000000     145.71325684
2
Properties=species:S:1:pos:R:3:forces:R:3 energy=-65.71641753217364 pbc="F F F"
Hg       0.00000000       0.00000000       0.00000000       0.00000000       0.00000000    -117.78849792
Hg       0.00000000       0.00000000       1.59090909       0.00000000       0.00000000     117.78849792
2
Properties=species:S:1:pos:R:3:forces:R:3 energy=-71.9540113605494 pbc="F F F"
Hg       0.00000000       0.00000000       0.00000000       0.00000000       0.00000000     -95.42699432
Hg       0.00000000       0.00000000       1.64969697       0.00000000       0.00000000      95.42699432
2
Properties=species:S:1:pos:R:3:forces:R:3 energy=-77.0372623839186 pbc="F F F"
Hg       0.00000000       0.00000000       0.00000000       0.00000000       0.00000000     -78.17269897
Hg       0.00000000       0.00000000       1.70848485       0.00000000       0.00000000      78.17269897
2
Properties=species:S:1:pos:R:3:forces:R:3 energy=-81.20371177408522 pbc="F F F"
Hg       0.00000000       0.00000000       0.00000000       0.00000000       0.00000000     -63.95251083
Hg       0.00000000       0.00000000       1.76727273       0.00000000       0.00000000      63.95251083
2
Properties=species:S:1:pos:R:3:forces:R:3 energy=-84.59517469125355 pbc="F F F"
Hg       0.00000000       0.00000000       0.00000000       0.00000000       0.00000000     -51.73441696
Hg       0.00000000       0.00000000       1.82606061       0.00000000       0.00000000      51.73441696
2
Properties=species:S:1:pos:R:3:forces:R:3 energy=-87.32300974790742 pbc="F F F"
Hg       0.00000000       0.00000000       0.00000000       0.00000000       0.00000000     -41.38782501
Hg       0.00000000       0.00000000       1.88484848       0.00000000       0.00000000      41.38782501
2
Properties=species:S:1:pos:R:3:forces:R:3 energy=-89.49960552320843 pbc="F F F"
Hg       0.00000000       0.00000000       0.00000000       0.00000000       0.00000000     -32.98412704
Hg       0.00000000       0.00000000       1.94363636       0.00000000       0.00000000      32.98412704
2
Properties=species:S:1:pos:R:3:forces:R:3 energy=-91.23708357226137 pbc="F F F"
Hg       0.00000000       0.00000000       0.00000000       0.00000000       0.00000000     -26.40522385
Hg       0.00000000       0.00000000       2.00242424       0.00000000       0.00000000      26.40522385
2
Properties=species:S:1:pos:R:3:forces:R:3 energy=-92.63292463731378 pbc="F F F"
Hg       0.00000000       0.00000000       0.00000000       0.00000000       0.00000000     -21.28908348
Hg       0.00000000       0.00000000       2.06121212       0.00000000       0.00000000      21.28908348
2
Properties=species:S:1:pos:R:3:forces:R:3 energy=-93.76040140760468 pbc="F F F"
Hg       0.00000000       0.00000000       0.00000000       0.00000000       0.00000000     -17.21001816
Hg       0.00000000       0.00000000       2.12000000       0.00000000       0.00000000      17.21001816
2
Properties=species:S:1:pos:R:3:forces:R:3 energy=-94.6704324574839 pbc="F F F"
Hg       0.00000000       0.00000000       0.00000000       0.00000000       0.00000000     -13.85181904
Hg       0.00000000       0.00000000       2.17878788       0.00000000       0.00000000      13.85181904
2
Properties=species:S:1:pos:R:3:forces:R:3 energy=-95.39970757851435 pbc="F F F"
Hg       0.00000000       0.00000000       0.00000000       0.00000000       0.00000000     -11.04117393
Hg       0.00000000       0.00000000       2.23757576       0.00000000       0.00000000      11.04117393
2
Properties=species:S:1:pos:R:3:forces:R:3 energy=-95.97766868180376 pbc="F F F"
Hg       0.00000000       0.00000000       0.00000000       0.00000000       0.00000000      -8.69432831
Hg       0.00000000       0.00000000       2.29636364       0.00000000       0.00000000       8.69432831
2
Properties=species:S:1:pos:R:3:forces:R:3 energy=-96.43004988775236 pbc="F F F"
Hg       0.00000000       0.00000000       0.00000000       0.00000000       0.00000000      -6.76104784
Hg       0.00000000       0.00000000       2.35515152       0.00000000       0.00000000       6.76104784
2
Properties=species:S:1:pos:R:3:forces:R:3 energy=-96.77981597009058 pbc="F F F"
Hg       0.00000000       0.00000000       0.00000000       0.00000000       0.00000000      -5.19517231
Hg       0.00000000       0.00000000       2.41393939       0.00000000       0.00000000       5.19517231
2
Properties=species:S:1:pos:R:3:forces:R:3 energy=-97.04709376973189 pbc="F F F"
Hg       0.00000000       0.00000000       0.00000000       0.00000000       0.00000000      -3.94635129
Hg       0.00000000       0.00000000       2.47272727       0.00000000       0.00000000       3.94635129
2
Properties=species:S:1:pos:R:3:forces:R:3 energy=-97.24898916691568 pbc="F F F"
Hg       0.00000000       0.00000000       0.00000000       0.00000000       0.00000000      -2.96206737
Hg       0.00000000       0.00000000       2.53151515       0.00000000       0.00000000       2.96206737
2
Properties=species:S:1:pos:R:3:forces:R:3 energy=-97.39956430944115 pbc="F F F"
Hg       0.00000000       0.00000000       0.00000000       0.00000000       0.00000000      -2.19255781
Hg       0.00000000       0.00000000       2.59030303       0.00000000       0.00000000       2.19255781
2
Properties=species:S:1:pos:R:3:forces:R:3 energy=-97.51014293971205 pbc="F F F"
Hg       0.00000000       0.00000000       0.00000000       0.00000000       0.00000000      -1.59472871
Hg       0.00000000       0.00000000       2.64909091       0.00000000       0.00000000       1.59472871
2
Properties=species:S:1:pos:R:3:forces:R:3 energy=-97.58973779130203 pbc="F F F"
Hg       0.00000000       0.00000000       0.00000000       0.00000000       0.00000000      -1.13340676
Hg       0.00000000       0.00000000       2.70787879       0.00000000       0.00000000       1.13340676
2
Properties=species:S:1:pos:R:3:forces:R:3 energy=-97.64552377614223 pbc="F F F"
Hg       0.00000000       0.00000000       0.00000000       0.00000000       0.00000000      -0.78064793
Hg       0.00000000       0.00000000       2.76666667       0.00000000       0.00000000       0.78064793
2
Properties=species:S:1:pos:R:3:forces:R:3 energy=-97.68321951602046 pbc="F F F"
Hg       0.00000000       0.00000000       0.00000000       0.00000000       0.00000000      -0.51466256
Hg       0.00000000       0.00000000       2.82545455       0.00000000       0.00000000       0.51466256
2
Properties=species:S:1:pos:R:3:forces:R:3 energy=-97.70740749917508 pbc="F F F"
Hg       0.00000000       0.00000000       0.00000000       0.00000000       0.00000000      -0.31896067
Hg       0.00000000       0.00000000       2.88424242       0.00000000       0.00000000       0.31896067
2
Properties=species:S:1:pos:R:3:forces:R:3 energy=-97.72185340454368 pbc="F F F"
Hg       0.00000000       0.00000000       0.00000000       0.00000000       0.00000000      -0.18131976
Hg       0.00000000       0.00000000       2.94303030       0.00000000       0.00000000       0.18131976
2
Properties=species:S:1:pos:R:3:forces:R:3 energy=-97.72967891211495 pbc="F F F"
Hg       0.00000000       0.00000000       0.00000000       0.00000000       0.00000000      -0.09226887
Hg       0.00000000       0.00000000       3.00181818       0.00000000       0.00000000       0.09226887
2
Properties=species:S:1:pos:R:3:forces:R:3 energy=-97.73349461767003 pbc="F F F"
Hg       0.00000000       0.00000000       0.00000000       0.00000000       0.00000000      -0.04337190
Hg       0.00000000       0.00000000       3.06060606       0.00000000       0.00000000       0.04337190
2
Properties=species:S:1:pos:R:3:forces:R:3 energy=-97.73539658064841 pbc="F F F"
Hg       0.00000000       0.00000000       0.00000000       0.00000000       0.00000000      -0.02585527
Hg       0.00000000       0.00000000       3.11939394       0.00000000       0.00000000       0.02585527
2
Properties=species:S:1:pos:R:3:forces:R:3 energy=-97.7369627812439 pbc="F F F"
Hg       0.00000000       0.00000000       0.00000000       0.00000000       0.00000000      -0.03011693
Hg       0.00000000       0.00000000       3.17818182       0.00000000       0.00000000       0.03011693
2
Properties=species:S:1:pos:R:3:forces:R:3 energy=-97.73916734370714 pbc="F F F"
Hg       0.00000000       0.00000000       0.00000000       0.00000000       0.00000000      -0.04621541
Hg       0.00000000       0.00000000       3.23696970       0.00000000       0.00000000       0.04621541
2
Properties=species:S:1:pos:R:3:forces:R:3 energy=-97.74244415754175 pbc="F F F"
Hg       0.00000000       0.00000000       0.00000000       0.00000000       0.00000000      -0.06503975
Hg       0.00000000       0.00000000       3.29575758       0.00000000       0.00000000       0.06503975
2
Properties=species:S:1:pos:R:3:forces:R:3 energy=-97.74672821416885 pbc="F F F"
Hg       0.00000000       0.00000000       0.00000000       0.00000000       0.00000000      -0.07965739
Hg       0.00000000       0.00000000       3.35454545       0.00000000       0.00000000       0.07965739
2
Properties=species:S:1:pos:R:3:forces:R:3 energy=-97.75165054804782 pbc="F F F"
Hg       0.00000000       0.00000000       0.00000000       0.00000000       0.00000000      -0.08629457
Hg       0.00000000       0.00000000       3.41333333       0.00000000       0.00000000       0.08629457
2
Properties=species:S:1:pos:R:3:forces:R:3 energy=-97.75670800354317 pbc="F F F"
Hg       0.00000000       0.00000000       0.00000000       0.00000000       0.00000000      -0.08439068
Hg       0.00000000       0.00000000       3.47212121       0.00000000       0.00000000       0.08439068
2
Properties=species:S:1:pos:R:3:forces:R:3 energy=-97.76143888522888 pbc="F F F"
Hg       0.00000000       0.00000000       0.00000000       0.00000000       0.00000000      -0.07575434
Hg       0.00000000       0.00000000       3.53090909       0.00000000       0.00000000       0.07575434
2
Properties=species:S:1:pos:R:3:forces:R:3 energy=-97.76553934939291 pbc="F F F"
Hg       0.00000000       0.00000000       0.00000000       0.00000000       0.00000000      -0.06332516
Hg       0.00000000       0.00000000       3.58969697       0.00000000       0.00000000       0.06332516
2
Properties=species:S:1:pos:R:3:forces:R:3 energy=-97.76887237104464 pbc="F F F"
Hg       0.00000000       0.00000000       0.00000000       0.00000000       0.00000000      -0.05007349
Hg       0.00000000       0.00000000       3.64848485       0.00000000       0.00000000       0.05007349
2
Properties=species:S:1:pos:R:3:forces:R:3 energy=-97.7714607876825 pbc="F F F"
Hg       0.00000000       0.00000000       0.00000000       0.00000000       0.00000000      -0.03828821
Hg       0.00000000       0.00000000       3.70727273       0.00000000       0.00000000       0.03828821
2
Properties=species:S:1:pos:R:3:forces:R:3 energy=-97.7734264930129 pbc="F F F"
Hg       0.00000000       0.00000000       0.00000000       0.00000000       0.00000000      -0.02929372
Hg       0.00000000       0.00000000       3.76606061       0.00000000       0.00000000       0.02929372
2
Properties=species:S:1:pos:R:3:forces:R:3 energy=-97.77496764459327 pbc="F F F"
Hg       0.00000000       0.00000000       0.00000000       0.00000000       0.00000000      -0.02349251
Hg       0.00000000       0.00000000       3.82484848       0.00000000       0.00000000       0.02349251
2
Properties=species:S:1:pos:R:3:forces:R:3 energy=-97.77625186814771 pbc="F F F"
Hg       0.00000000       0.00000000       0.00000000       0.00000000       0.00000000      -0.02058114
Hg       0.00000000       0.00000000       3.88363636       0.00000000       0.00000000       0.02058114
2
Properties=species:S:1:pos:R:3:forces:R:3 energy=-97.77742391230406 pbc="F F F"
Hg       0.00000000       0.00000000       0.00000000       0.00000000       0.00000000      -0.01983722
Hg       0.00000000       0.00000000       3.94242424       0.00000000       0.00000000       0.01983722
2
Properties=species:S:1:pos:R:3:forces:R:3 energy=-97.7786056398825 pbc="F F F"
Hg       0.00000000       0.00000000       0.00000000       0.00000000       0.00000000      -0.02038406
Hg       0.00000000       0.00000000       4.00121212       0.00000000       0.00000000       0.02038406
2
Properties=species:S:1:pos:R:3:forces:R:3 energy=-97.77983500620245 pbc="F F F"
Hg       0.00000000       0.00000000       0.00000000       0.00000000       0.00000000      -0.02139732
Hg       0.00000000       0.00000000       4.06000000       0.00000000       0.00000000       0.02139732
2
Properties=species:S:1:pos:R:3:forces:R:3 energy=-97.78111946484428 pbc="F F F"
Hg       0.00000000       0.00000000       0.00000000       0.00000000       0.00000000      -0.02224291
Hg       0.00000000       0.00000000       4.11878788       0.00000000       0.00000000       0.02224291
2
Properties=species:S:1:pos:R:3:forces:R:3 energy=-97.78243597477702 pbc="F F F"
Hg       0.00000000       0.00000000       0.00000000       0.00000000       0.00000000      -0.02253353
Hg       0.00000000       0.00000000       4.17757576       0.00000000       0.00000000       0.02253353
2
Properties=species:S:1:pos:R:3:forces:R:3 energy=-97.78375388458201 pbc="F F F"
Hg       0.00000000       0.00000000       0.00000000       0.00000000       0.00000000      -0.02213474
Hg       0.00000000       0.00000000       4.23636364       0.00000000       0.00000000       0.02213474
2
Properties=species:S:1:pos:R:3:forces:R:3 energy=-97.78502730939421 pbc="F F F"
Hg       0.00000000       0.00000000       0.00000000       0.00000000       0.00000000      -0.02111226
Hg       0.00000000       0.00000000       4.29515152       0.00000000       0.00000000       0.02111226
2
Properties=species:S:1:pos:R:3:forces:R:3 energy=-97.78622566748705 pbc="F F F"
Hg       0.00000000       0.00000000       0.00000000       0.00000000       0.00000000      -0.01967612
Hg       0.00000000       0.00000000       4.35393939       0.00000000       0.00000000       0.01967612
2
Properties=species:S:1:pos:R:3:forces:R:3 energy=-97.78734128194868 pbc="F F F"
Hg       0.00000000       0.00000000       0.00000000       0.00000000       0.00000000      -0.01811228
Hg       0.00000000       0.00000000       4.41272727       0.00000000       0.00000000       0.01811228
2
Properties=species:S:1:pos:R:3:forces:R:3 energy=-97.7883588916142 pbc="F F F"
Hg       0.00000000       0.00000000       0.00000000       0.00000000       0.00000000      -0.01674485
Hg       0.00000000       0.00000000       4.47151515       0.00000000       0.00000000       0.01674485
2
Properties=species:S:1:pos:R:3:forces:R:3 energy=-97.78931668780572 pbc="F F F"
Hg       0.00000000       0.00000000       0.00000000       0.00000000       0.00000000      -0.01590448
Hg       0.00000000       0.00000000       4.53030303       0.00000000       0.00000000       0.01590448
2
Properties=species:S:1:pos:R:3:forces:R:3 energy=-97.79024526096133 pbc="F F F"
Hg       0.00000000       0.00000000       0.00000000       0.00000000       0.00000000      -0.01589959
Hg       0.00000000       0.00000000       4.58909091       0.00000000       0.00000000       0.01589959
2
Properties=species:S:1:pos:R:3:forces:R:3 energy=-97.79120577928578 pbc="F F F"
Hg       0.00000000       0.00000000       0.00000000       0.00000000       0.00000000      -0.01697152
Hg       0.00000000       0.00000000       4.64787879       0.00000000       0.00000000       0.01697152
2
Properties=species:S:1:pos:R:3:forces:R:3 energy=-97.79226707601639 pbc="F F F"
Hg       0.00000000       0.00000000       0.00000000       0.00000000       0.00000000      -0.01923159
Hg       0.00000000       0.00000000       4.70666667       0.00000000       0.00000000       0.01923159
2
Properties=species:S:1:pos:R:3:forces:R:3 energy=-97.79349041122477 pbc="F F F"
Hg       0.00000000       0.00000000       0.00000000       0.00000000       0.00000000      -0.02260615
Hg       0.00000000       0.00000000       4.76545455       0.00000000       0.00000000       0.02260615
2
Properties=species:S:1:pos:R:3:forces:R:3 energy=-97.79494471635073 pbc="F F F"
Hg       0.00000000       0.00000000       0.00000000       0.00000000       0.00000000      -0.02681781
Hg       0.00000000       0.00000000       4.82424242       0.00000000       0.00000000       0.02681781
2
Properties=species:S:1:pos:R:3:forces:R:3 energy=-97.79665320190375 pbc="F F F"
Hg       0.00000000       0.00000000       0.00000000       0.00000000       0.00000000      -0.03143409
Hg       0.00000000       0.00000000       4.88303030       0.00000000       0.00000000       0.03143409
2
Properties=species:S:1:pos:R:3:forces:R:3 energy=-97.79863911957504 pbc="F F F"
Hg       0.00000000       0.00000000       0.00000000       0.00000000       0.00000000      -0.03598409
Hg       0.00000000       0.00000000       4.94181818       0.00000000       0.00000000       0.03598409
2
Properties=species:S:1:pos:R:3:forces:R:3 energy=-97.80087235330794 pbc="F F F"
Hg       0.00000000       0.00000000       0.00000000       0.00000000       0.00000000      -0.04008799
Hg       0.00000000       0.00000000       5.00060606       0.00000000       0.00000000       0.04008799
2
Properties=species:S:1:pos:R:3:forces:R:3 energy=-97.80333809889582 pbc="F F F"
Hg       0.00000000       0.00000000       0.00000000       0.00000000       0.00000000      -0.04352887
Hg       0.00000000       0.00000000       5.05939394       0.00000000       0.00000000       0.04352887
2
Properties=species:S:1:pos:R:3:forces:R:3 energy=-97.8059758050673 pbc="F F F"
Hg       0.00000000       0.00000000       0.00000000       0.00000000       0.00000000      -0.04618903
Hg       0.00000000       0.00000000       5.11818182       0.00000000       0.00000000       0.04618903
2
Properties=species:S:1:pos:R:3:forces:R:3 energy=-97.80874783724495 pbc="F F F"
Hg       0.00000000       0.00000000       0.00000000       0.00000000       0.00000000      -0.04787071
Hg       0.00000000       0.00000000       5.17696970       0.00000000       0.00000000       0.04787071
2
Properties=species:S:1:pos:R:3:forces:R:3 energy=-97.81157844476495 pbc="F F F"
Hg       0.00000000       0.00000000       0.00000000       0.00000000       0.00000000      -0.04813743
Hg       0.00000000       0.00000000       5.23575758       0.00000000       0.00000000       0.04813743
2
Properties=species:S:1:pos:R:3:forces:R:3 energy=-97.814369004619 pbc="F F F"
Hg       0.00000000       0.00000000       0.00000000       0.00000000       0.00000000      -0.04644062
Hg       0.00000000       0.00000000       5.29454545       0.00000000       0.00000000       0.04644062
2
Properties=species:S:1:pos:R:3:forces:R:3 energy=-97.81699801749456 pbc="F F F"
Hg       0.00000000       0.00000000       0.00000000       0.00000000       0.00000000      -0.04273318
Hg       0.00000000       0.00000000       5.35333333       0.00000000       0.00000000       0.04273318
2
Properties=species:S:1:pos:R:3:forces:R:3 energy=-97.81937451432846 pbc="F F F"
Hg       0.00000000       0.00000000       0.00000000       0.00000000       0.00000000      -0.03810212
Hg       0.00000000       0.00000000       5.41212121       0.00000000       0.00000000       0.03810212
2
Properties=species:S:1:pos:R:3:forces:R:3 energy=-97.82148380812355 pbc="F F F"
Hg       0.00000000       0.00000000       0.00000000       0.00000000       0.00000000      -0.03378835
Hg       0.00000000       0.00000000       5.47090909       0.00000000       0.00000000       0.03378835
2
Properties=species:S:1:pos:R:3:forces:R:3 energy=-97.82333409531452 pbc="F F F"
Hg       0.00000000       0.00000000       0.00000000       0.00000000       0.00000000      -0.02867425
Hg       0.00000000       0.00000000       5.52969697       0.00000000       0.00000000       0.02867425
2
Properties=species:S:1:pos:R:3:forces:R:3 energy=-97.8248114929161 pbc="F F F"
Hg       0.00000000       0.00000000       0.00000000       0.00000000       0.00000000      -0.02148455
Hg       0.00000000       0.00000000       5.58848485       0.00000000       0.00000000       0.02148455
2
Properties=species:S:1:pos:R:3:forces:R:3 energy=-97.82585549598623 pbc="F F F"
Hg       0.00000000       0.00000000       0.00000000       0.00000000       0.00000000      -0.01403707
Hg       0.00000000       0.00000000       5.64727273       0.00000000       0.00000000       0.01403707
2
Properties=species:S:1:pos:R:3:forces:R:3 energy=-97.82647423879114 pbc="F F F"
Hg       0.00000000       0.00000000       0.00000000       0.00000000       0.00000000      -0.00715150
Hg       0.00000000       0.00000000       5.70606061       0.00000000       0.00000000       0.00715150
2
Properties=species:S:1:pos:R:3:forces:R:3 energy=-97.8266834564811 pbc="F F F"
Hg       0.00000000       0.00000000       0.00000000       0.00000000       0.00000000       0.00015563
Hg       0.00000000       0.00000000       5.76484848       0.00000000       0.00000000      -0.00015563
2
Properties=species:S:1:pos:R:3:forces:R:3 energy=-97.8264835901754 pbc="F F F"
Hg       0.00000000       0.00000000       0.00000000       0.00000000       0.00000000       0.00615651
Hg       0.00000000       0.00000000       5.82363636       0.00000000       0.00000000      -0.00615651
2
Properties=species:S:1:pos:R:3:forces:R:3 energy=-97.8260657750708 pbc="F F F"
Hg       0.00000000       0.00000000       0.00000000       0.00000000       0.00000000       0.00702119
Hg       0.00000000       0.00000000       5.88242424       0.00000000       0.00000000      -0.00702119
2
Properties=species:S:1:pos:R:3:forces:R:3 energy=-97.82572792304151 pbc="F F F"
Hg       0.00000000       0.00000000       0.00000000       0.00000000       0.00000000       0.00448565
Hg       0.00000000       0.00000000       5.94121212       0.00000000       0.00000000      -0.00448565
2
Properties=species:S:1:pos:R:3:forces:R:3 energy=-97.82551613040478 pbc="F F F"
Hg       0.00000000       0.00000000       0.00000000       0.00000000       0.00000000       0.00304799
Hg       0.00000000       0.00000000       6.00000000       0.00000000       0.00000000      -0.00304799
