2
Properties=species:S:1:pos:R:3:forces:R:3 energy=16142.194751912875 pbc="F F F"
I        0.00000000       0.00000000       0.00000000       0.00000000       0.00000000 -156642.14062500
I        0.00000000       0.00000000       0.18000000       0.00000000       0.00000000  156642.14062500
2
Properties=species:S:1:pos:R:3:forces:R:3 energy=10664.505298787875 pbc="F F F"
I        0.00000000       0.00000000       0.00000000       0.00000000       0.00000000  -51069.46484375
I        0.00000000       0.00000000       0.23878788       0.00000000       0.00000000   51069.46484375
2
Properties=species:S:1:pos:R:3:forces:R:3 energy=8850.823658162875 pbc="F F F"
I        0.00000000       0.00000000       0.00000000       0.00000000       0.00000000  -16028.29882812
I        0.00000000       0.00000000       0.29757576       0.00000000       0.00000000   16028.29882812
2
Properties=species:S:1:pos:R:3:forces:R:3 energy=8381.770923787875 pbc="F F F"
I        0.00000000       0.00000000       0.00000000       0.00000000       0.00000000   -1039.80944824
I        0.00000000       0.00000000       0.35636364       0.00000000       0.00000000    1039.80944824
2
Properties=species:S:1:pos:R:3:forces:R:3 energy=8525.198658164458 pbc="F F F"
I        0.00000000       0.00000000       0.00000000       0.00000000       0.00000000    4470.69482422
I        0.00000000       0.00000000       0.41515152       0.00000000       0.00000000   -4470.69482422
2
Properties=species:S:1:pos:R:3:forces:R:3 energy=8419.597095666042 pbc="F F F"
I        0.00000000       0.00000000       0.00000000       0.00000000       0.00000000   -5340.07275391
I        0.00000000       0.00000000       0.47393939       0.00000000       0.00000000    5340.07275391
2
Properties=species:S:1:pos:R:3:forces:R:3 energy=7293.8754159801265 pbc="F F F"
I        0.00000000       0.00000000       0.00000000       0.00000000       0.00000000  -31915.45312500
I        0.00000000       0.00000000       0.53272727       0.00000000       0.00000000   31915.45312500
2
Properties=species:S:1:pos:R:3:forces:R:3 energy=4962.310962861462 pbc="F F F"
I        0.00000000       0.00000000       0.00000000       0.00000000       0.00000000  -46199.80859375
I        0.00000000       0.00000000       0.59151515       0.00000000       0.00000000   46199.80859375
2
Properties=species:S:1:pos:R:3:forces:R:3 energy=1326.3135263459442 pbc="F F F"
I        0.00000000       0.00000000       0.00000000       0.00000000       0.00000000  -54023.75390625
I        0.00000000       0.00000000       0.65030303       0.00000000       0.00000000   54023.75390625
2
Properties=species:S:1:pos:R:3:forces:R:3 energy=1633.9985849531574 pbc="F F F"
I        0.00000000       0.00000000       0.00000000       0.00000000       0.00000000   56358.09765625
I        0.00000000       0.00000000       0.70909091       0.00000000       0.00000000  -56358.09765625
2
Properties=species:S:1:pos:R:3:forces:R:3 energy=2281.681080090144 pbc="F F F"
I        0.00000000       0.00000000       0.00000000       0.00000000       0.00000000  -19531.34375000
I        0.00000000       0.00000000       0.76787879       0.00000000       0.00000000   19531.34375000
2
Properties=species:S:1:pos:R:3:forces:R:3 energy=1184.5004160577382 pbc="F F F"
I        0.00000000       0.00000000       0.00000000       0.00000000       0.00000000  -18517.28515625
I        0.00000000       0.00000000       0.82666667       0.00000000       0.00000000   18517.28515625
2
Properties=species:S:1:pos:R:3:forces:R:3 energy=696.0431407098787 pbc="F F F"
I        0.00000000       0.00000000       0.00000000       0.00000000       0.00000000   -7008.50537109
I        0.00000000       0.00000000       0.88545455       0.00000000       0.00000000    7008.50537109
2
Properties=species:S:1:pos:R:3:forces:R:3 energy=360.1569102997334 pbc="F F F"
I        0.00000000       0.00000000       0.00000000       0.00000000       0.00000000   -4370.23437500
I        0.00000000       0.00000000       0.94424242       0.00000000       0.00000000    4370.23437500
2
Properties=species:S:1:pos:R:3:forces:R:3 energy=166.74068113246602 pbc="F F F"
I        0.00000000       0.00000000       0.00000000       0.00000000       0.00000000    -721.91009521
I        0.00000000       0.00000000       1.00303030       0.00000000       0.00000000     721.91009521
2
Properties=species:S:1:pos:R:3:forces:R:3 energy=122.58695657134572 pbc="F F F"
I        0.00000000       0.00000000       0.00000000       0.00000000       0.00000000    -651.25482178
I        0.00000000       0.00000000       1.06181818       0.00000000       0.00000000     651.25482178
2
Properties=species:S:1:pos:R:3:forces:R:3 energy=90.62408134927068 pbc="F F F"
I        0.00000000       0.00000000       0.00000000       0.00000000       0.00000000    -443.15179443
I        0.00000000       0.00000000       1.12060606       0.00000000       0.00000000     443.15179443
2
Properties=species:S:1:pos:R:3:forces:R:3 energy=69.46061412973759 pbc="F F F"
I        0.00000000       0.00000000       0.00000000       0.00000000       0.00000000    -287.56716919
I        0.00000000       0.00000000       1.17939394       0.00000000       0.00000000     287.56716919
2
Properties=species:S:1:pos:R:3:forces:R:3 energy=55.206265617985125 pbc="F F F"
I        0.00000000       0.00000000       0.00000000       0.00000000       0.00000000    -212.71093750
I        0.00000000       0.00000000       1.23818182       0.00000000       0.00000000     212.71093750
2
Properties=species:S:1:pos:R:3:forces:R:3 energy=44.238805294523566 pbc="F F F"
I        0.00000000       0.00000000       0.00000000       0.00000000       0.00000000    -117.14728546
I        0.00000000       0.00000000       1.29696970       0.00000000       0.00000000     117.14728546
2
Properties=species:S:1:pos:R:3:forces:R:3 energy=37.630460650843496 pbc="F F F"
I        0.00000000       0.00000000       0.00000000       0.00000000       0.00000000    -145.40216064
I        0.00000000       0.00000000       1.35575758       0.00000000       0.00000000     145.40216064
2
Properties=species:S:1:pos:R:3:forces:R:3 energy=25.613020339621848 pbc="F F F"
I        0.00000000       0.00000000       0.00000000       0.00000000       0.00000000    -251.16812134
I        0.00000000       0.00000000       1.41454545       0.00000000       0.00000000     251.16812134
2
Properties=species:S:1:pos:R:3:forces:R:3 energy=10.645323794785547 pbc="F F F"
I        0.00000000       0.00000000       0.00000000       0.00000000       0.00000000    -243.28269958
I        0.00000000       0.00000000       1.47333333       0.00000000       0.00000000     243.28269958
2
Properties=species:S:1:pos:R:3:forces:R:3 energy=-2.304485497563932 pbc="F F F"
I        0.00000000       0.00000000       0.00000000       0.00000000       0.00000000    -196.66595459
I        0.00000000       0.00000000       1.53212121       0.00000000       0.00000000     196.66595459
2
Properties=species:S:1:pos:R:3:forces:R:3 energy=-12.397071120780115 pbc="F F F"
I        0.00000000       0.00000000       0.00000000       0.00000000       0.00000000    -147.32064819
I        0.00000000       0.00000000       1.59090909       0.00000000       0.00000000     147.32064819
2
Properties=species:S:1:pos:R:3:forces:R:3 energy=-19.86484157070413 pbc="F F F"
I        0.00000000       0.00000000       0.00000000       0.00000000       0.00000000    -109.15937042
I        0.00000000       0.00000000       1.64969697       0.00000000       0.00000000     109.15937042
2
Properties=species:S:1:pos:R:3:forces:R:3 energy=-25.485623125653813 pbc="F F F"
I        0.00000000       0.00000000       0.00000000       0.00000000       0.00000000     -83.88083649
I        0.00000000       0.00000000       1.70848485       0.00000000       0.00000000      83.88083649
2
Properties=species:S:1:pos:R:3:forces:R:3 energy=-29.89937890080753 pbc="F F F"
I        0.00000000       0.00000000       0.00000000       0.00000000       0.00000000     -67.40402222
I        0.00000000       0.00000000       1.76727273       0.00000000       0.00000000      67.40402222
2
Properties=species:S:1:pos:R:3:forces:R:3 energy=-33.508546067442474 pbc="F F F"
I        0.00000000       0.00000000       0.00000000       0.00000000       0.00000000     -55.96244812
I        0.00000000       0.00000000       1.82606061       0.00000000       0.00000000      55.96244812
2
Properties=species:S:1:pos:R:3:forces:R:3 energy=-36.52672474465227 pbc="F F F"
I        0.00000000       0.00000000       0.00000000       0.00000000       0.00000000     -46.99644470
I        0.00000000       0.00000000       1.88484848       0.00000000       0.00000000      46.99644470
2
Properties=species:S:1:pos:R:3:forces:R:3 energy=-39.059589625404115 pbc="F F F"
I        0.00000000       0.00000000       0.00000000       0.00000000       0.00000000     -39.35621262
I        0.00000000       0.00000000       1.94363636       0.00000000       0.00000000      39.35621262
2
Properties=species:S:1:pos:R:3:forces:R:3 energy=-41.17437469673557 pbc="F F F"
I        0.00000000       0.00000000       0.00000000       0.00000000       0.00000000     -32.75644302
I        0.00000000       0.00000000       2.00242424       0.00000000       0.00000000      32.75644302
2
Properties=species:S:1:pos:R:3:forces:R:3 energy=-42.929467660349374 pbc="F F F"
I        0.00000000       0.00000000       0.00000000       0.00000000       0.00000000     -27.09817696
I        0.00000000       0.00000000       2.06121212       0.00000000       0.00000000      27.09817696
2
Properties=species:S:1:pos:R:3:forces:R:3 energy=-44.37558866535696 pbc="F F F"
I        0.00000000       0.00000000       0.00000000       0.00000000       0.00000000     -22.21127129
I        0.00000000       0.00000000       2.12000000       0.00000000       0.00000000      22.21127129
2
Properties=species:S:1:pos:R:3:forces:R:3 energy=-45.55210531547162 pbc="F F F"
I        0.00000000       0.00000000       0.00000000       0.00000000       0.00000000     -17.89489746
I        0.00000000       0.00000000       2.17878788       0.00000000       0.00000000      17.89489746
2
Properties=species:S:1:pos:R:3:forces:R:3 energy=-46.48814656298594 pbc="F F F"
I        0.00000000       0.00000000       0.00000000       0.00000000       0.00000000     -14.01989079
I        0.00000000       0.00000000       2.23757576       0.00000000       0.00000000      14.01989079
2
Properties=species:S:1:pos:R:3:forces:R:3 energy=-47.20928605521334 pbc="F F F"
I        0.00000000       0.00000000       0.00000000       0.00000000       0.00000000     -10.59690762
I        0.00000000       0.00000000       2.29636364       0.00000000       0.00000000      10.59690762
2
Properties=species:S:1:pos:R:3:forces:R:3 energy=-47.74508378939831 pbc="F F F"
I        0.00000000       0.00000000       0.00000000       0.00000000       0.00000000      -7.73301363
I        0.00000000       0.00000000       2.35515152       0.00000000       0.00000000       7.73301363
2
Properties=species:S:1:pos:R:3:forces:R:3 energy=-48.130520437304355 pbc="F F F"
I        0.00000000       0.00000000       0.00000000       0.00000000       0.00000000      -5.47658157
I        0.00000000       0.00000000       2.41393939       0.00000000       0.00000000       5.47658157
2
Properties=species:S:1:pos:R:3:forces:R:3 energy=-48.39891727025685 pbc="F F F"
I        0.00000000       0.00000000       0.00000000       0.00000000       0.00000000      -3.72349238
I        0.00000000       0.00000000       2.47272727       0.00000000       0.00000000       3.72349238
2
Properties=species:S:1:pos:R:3:forces:R:3 energy=-48.574688235922245 pbc="F F F"
I        0.00000000       0.00000000       0.00000000       0.00000000       0.00000000      -2.29842138
I        0.00000000       0.00000000       2.53151515       0.00000000       0.00000000       2.29842138
2
Properties=species:S:1:pos:R:3:forces:R:3 energy=-48.6732712739584 pbc="F F F"
I        0.00000000       0.00000000       0.00000000       0.00000000       0.00000000      -1.08690286
I        0.00000000       0.00000000       2.59030303       0.00000000       0.00000000       1.08690286
2
Properties=species:S:1:pos:R:3:forces:R:3 energy=-48.70622478403161 pbc="F F F"
I        0.00000000       0.00000000       0.00000000       0.00000000       0.00000000      -0.06715709
I        0.00000000       0.00000000       2.64909091       0.00000000       0.00000000       0.06715709
2
Properties=species:S:1:pos:R:3:forces:R:3 energy=-48.68511858138961 pbc="F F F"
I        0.00000000       0.00000000       0.00000000       0.00000000       0.00000000       0.75211155
I        0.00000000       0.00000000       2.70787879       0.00000000       0.00000000      -0.75211155
2
Properties=species:S:1:pos:R:3:forces:R:3 energy=-48.62142710751281 pbc="F F F"
I        0.00000000       0.00000000       0.00000000       0.00000000       0.00000000       1.38563657
I        0.00000000       0.00000000       2.76666667       0.00000000       0.00000000      -1.38563657
2
Properties=species:S:1:pos:R:3:forces:R:3 energy=-48.52575121603305 pbc="F F F"
I        0.00000000       0.00000000       0.00000000       0.00000000       0.00000000       1.83519840
I        0.00000000       0.00000000       2.82545455       0.00000000       0.00000000      -1.83519840
2
Properties=species:S:1:pos:R:3:forces:R:3 energy=-48.41048845844367 pbc="F F F"
I        0.00000000       0.00000000       0.00000000       0.00000000       0.00000000       2.03836250
I        0.00000000       0.00000000       2.88424242       0.00000000       0.00000000      -2.03836250
2
Properties=species:S:1:pos:R:3:forces:R:3 energy=-48.29181671875806 pbc="F F F"
I        0.00000000       0.00000000       0.00000000       0.00000000       0.00000000       1.95539701
I        0.00000000       0.00000000       2.94303030       0.00000000       0.00000000      -1.95539701
2
Properties=species:S:1:pos:R:3:forces:R:3 energy=-48.18403318772032 pbc="F F F"
I        0.00000000       0.00000000       0.00000000       0.00000000       0.00000000       1.70016956
I        0.00000000       0.00000000       3.00181818       0.00000000       0.00000000      -1.70016956
2
Properties=species:S:1:pos:R:3:forces:R:3 energy=-48.09106281976549 pbc="F F F"
I        0.00000000       0.00000000       0.00000000       0.00000000       0.00000000       1.48558462
I        0.00000000       0.00000000       3.06060606       0.00000000       0.00000000      -1.48558462
2
Properties=species:S:1:pos:R:3:forces:R:3 energy=-48.00574111845652 pbc="F F F"
I        0.00000000       0.00000000       0.00000000       0.00000000       0.00000000       1.45051193
I        0.00000000       0.00000000       3.11939394       0.00000000       0.00000000      -1.45051193
2
Properties=species:S:1:pos:R:3:forces:R:3 energy=-47.91709632387225 pbc="F F F"
I        0.00000000       0.00000000       0.00000000       0.00000000       0.00000000       1.58684993
I        0.00000000       0.00000000       3.17818182       0.00000000       0.00000000      -1.58684993
2
Properties=species:S:1:pos:R:3:forces:R:3 energy=-47.81773834420261 pbc="F F F"
I        0.00000000       0.00000000       0.00000000       0.00000000       0.00000000       1.79590714
I        0.00000000       0.00000000       3.23696970       0.00000000       0.00000000      -1.79590714
2
Properties=species:S:1:pos:R:3:forces:R:3 energy=-47.70657853511261 pbc="F F F"
I        0.00000000       0.00000000       0.00000000       0.00000000       0.00000000       1.97412026
I        0.00000000       0.00000000       3.29575758       0.00000000       0.00000000      -1.97412026
2
Properties=species:S:1:pos:R:3:forces:R:3 energy=-47.58742974781953 pbc="F F F"
I        0.00000000       0.00000000       0.00000000       0.00000000       0.00000000       2.06222963
I        0.00000000       0.00000000       3.35454545       0.00000000       0.00000000      -2.06222963
2
Properties=species:S:1:pos:R:3:forces:R:3 energy=-47.466081087478706 pbc="F F F"
I        0.00000000       0.00000000       0.00000000       0.00000000       0.00000000       2.05080175
I        0.00000000       0.00000000       3.41333333       0.00000000       0.00000000      -2.05080175
2
Properties=species:S:1:pos:R:3:forces:R:3 energy=-47.34785028721989 pbc="F F F"
I        0.00000000       0.00000000       0.00000000       0.00000000       0.00000000       1.96083355
I        0.00000000       0.00000000       3.47212121       0.00000000       0.00000000      -1.96083355
2
Properties=species:S:1:pos:R:3:forces:R:3 energy=-47.2364976669701 pbc="F F F"
I        0.00000000       0.00000000       0.00000000       0.00000000       0.00000000       1.82144010
I        0.00000000       0.00000000       3.53090909       0.00000000       0.00000000      -1.82144010
2
Properties=species:S:1:pos:R:3:forces:R:3 energy=-47.13417915568989 pbc="F F F"
I        0.00000000       0.00000000       0.00000000       0.00000000       0.00000000       1.65691328
I        0.00000000       0.00000000       3.58969697       0.00000000       0.00000000      -1.65691328
2
Properties=species:S:1:pos:R:3:forces:R:3 energy=-47.041855362697746 pbc="F F F"
I        0.00000000       0.00000000       0.00000000       0.00000000       0.00000000       1.48348927
I        0.00000000       0.00000000       3.64848485       0.00000000       0.00000000      -1.48348927
2
Properties=species:S:1:pos:R:3:forces:R:3 energy=-46.95974037987822 pbc="F F F"
I        0.00000000       0.00000000       0.00000000       0.00000000       0.00000000       1.31087530
I        0.00000000       0.00000000       3.70727273       0.00000000       0.00000000      -1.31087530
2
Properties=species:S:1:pos:R:3:forces:R:3 energy=-46.88760023485774 pbc="F F F"
I        0.00000000       0.00000000       0.00000000       0.00000000       0.00000000       1.14474535
I        0.00000000       0.00000000       3.76606061       0.00000000       0.00000000      -1.14474535
2
Properties=species:S:1:pos:R:3:forces:R:3 energy=-46.824944952393416 pbc="F F F"
I        0.00000000       0.00000000       0.00000000       0.00000000       0.00000000       0.98868042
I        0.00000000       0.00000000       3.82484848       0.00000000       0.00000000      -0.98868042
2
Properties=species:S:1:pos:R:3:forces:R:3 energy=-46.771105518312716 pbc="F F F"
I        0.00000000       0.00000000       0.00000000       0.00000000       0.00000000       0.84518170
I        0.00000000       0.00000000       3.88363636       0.00000000       0.00000000      -0.84518170
2
Properties=species:S:1:pos:R:3:forces:R:3 energy=-46.72529122193366 pbc="F F F"
I        0.00000000       0.00000000       0.00000000       0.00000000       0.00000000       0.71603906
I        0.00000000       0.00000000       3.94242424       0.00000000       0.00000000      -0.71603906
2
Properties=species:S:1:pos:R:3:forces:R:3 energy=-46.686620120581836 pbc="F F F"
I        0.00000000       0.00000000       0.00000000       0.00000000       0.00000000       0.60219496
I        0.00000000       0.00000000       4.00121212       0.00000000       0.00000000      -0.60219496
2
Properties=species:S:1:pos:R:3:forces:R:3 energy=-46.65419141113259 pbc="F F F"
I        0.00000000       0.00000000       0.00000000       0.00000000       0.00000000       0.50350785
I        0.00000000       0.00000000       4.06000000       0.00000000       0.00000000      -0.50350785
2
Properties=species:S:1:pos:R:3:forces:R:3 energy=-46.627146416065955 pbc="F F F"
I        0.00000000       0.00000000       0.00000000       0.00000000       0.00000000       0.41869304
I        0.00000000       0.00000000       4.11878788       0.00000000       0.00000000      -0.41869304
2
Properties=species:S:1:pos:R:3:forces:R:3 energy=-46.604733362836164 pbc="F F F"
I        0.00000000       0.00000000       0.00000000       0.00000000       0.00000000       0.34551343
I        0.00000000       0.00000000       4.17757576       0.00000000       0.00000000      -0.34551343
2
Properties=species:S:1:pos:R:3:forces:R:3 energy=-46.586345531636255 pbc="F F F"
I        0.00000000       0.00000000       0.00000000       0.00000000       0.00000000       0.28125307
I        0.00000000       0.00000000       4.23636364       0.00000000       0.00000000      -0.28125307
2
Properties=species:S:1:pos:R:3:forces:R:3 energy=-46.57154410635976 pbc="F F F"
I        0.00000000       0.00000000       0.00000000       0.00000000       0.00000000       0.22324601
I        0.00000000       0.00000000       4.29515152       0.00000000       0.00000000      -0.22324601
2
Properties=species:S:1:pos:R:3:forces:R:3 energy=-46.56002004584299 pbc="F F F"
I        0.00000000       0.00000000       0.00000000       0.00000000       0.00000000       0.16936177
I        0.00000000       0.00000000       4.35393939       0.00000000       0.00000000      -0.16936177
2
Properties=species:S:1:pos:R:3:forces:R:3 energy=-46.551574971572954 pbc="F F F"
I        0.00000000       0.00000000       0.00000000       0.00000000       0.00000000       0.11826065
I        0.00000000       0.00000000       4.41272727       0.00000000       0.00000000      -0.11826065
2
Properties=species:S:1:pos:R:3:forces:R:3 energy=-46.54606780152334 pbc="F F F"
I        0.00000000       0.00000000       0.00000000       0.00000000       0.00000000       0.06948557
I        0.00000000       0.00000000       4.47151515       0.00000000       0.00000000      -0.06948557
2
Properties=species:S:1:pos:R:3:forces:R:3 energy=-46.54335368490401 pbc="F F F"
I        0.00000000       0.00000000       0.00000000       0.00000000       0.00000000       0.02335457
I        0.00000000       0.00000000       4.53030303       0.00000000       0.00000000      -0.02335457
2
Properties=species:S:1:pos:R:3:forces:R:3 energy=-46.543253497254156 pbc="F F F"
I        0.00000000       0.00000000       0.00000000       0.00000000       0.00000000      -0.01921348
I        0.00000000       0.00000000       4.58909091       0.00000000       0.00000000       0.01921348
2
Properties=species:S:1:pos:R:3:forces:R:3 energy=-46.545519515294465 pbc="F F F"
I        0.00000000       0.00000000       0.00000000       0.00000000       0.00000000      -0.05694937
I        0.00000000       0.00000000       4.64787879       0.00000000       0.00000000       0.05694937
2
Properties=species:S:1:pos:R:3:forces:R:3 energy=-46.54982776614985 pbc="F F F"
I        0.00000000       0.00000000       0.00000000       0.00000000       0.00000000      -0.08852961
I        0.00000000       0.00000000       4.70666667       0.00000000       0.00000000       0.08852961
2
Properties=species:S:1:pos:R:3:forces:R:3 energy=-46.555785682878486 pbc="F F F"
I        0.00000000       0.00000000       0.00000000       0.00000000       0.00000000      -0.11291219
I        0.00000000       0.00000000       4.76545455       0.00000000       0.00000000       0.11291219
2
Properties=species:S:1:pos:R:3:forces:R:3 energy=-46.562954962561065 pbc="F F F"
I        0.00000000       0.00000000       0.00000000       0.00000000       0.00000000      -0.12964873
I        0.00000000       0.00000000       4.82424242       0.00000000       0.00000000       0.12964873
2
Properties=species:S:1:pos:R:3:forces:R:3 energy=-46.57088592708665 pbc="F F F"
I        0.00000000       0.00000000       0.00000000       0.00000000       0.00000000      -0.13901450
I        0.00000000       0.00000000       4.88303030       0.00000000       0.00000000       0.13901450
2
Properties=species:S:1:pos:R:3:forces:R:3 energy=-46.57917089327633 pbc="F F F"
I        0.00000000       0.00000000       0.00000000       0.00000000       0.00000000      -0.14195548
I        0.00000000       0.00000000       4.94181818       0.00000000       0.00000000       0.14195548
2
Properties=species:S:1:pos:R:3:forces:R:3 energy=-46.58747470709245 pbc="F F F"
I        0.00000000       0.00000000       0.00000000       0.00000000       0.00000000      -0.13975225
I        0.00000000       0.00000000       5.00060606       0.00000000       0.00000000       0.13975225
2
Properties=species:S:1:pos:R:3:forces:R:3 energy=-46.59552710474061 pbc="F F F"
I        0.00000000       0.00000000       0.00000000       0.00000000       0.00000000      -0.13363469
I        0.00000000       0.00000000       5.05939394       0.00000000       0.00000000       0.13363469
2
Properties=species:S:1:pos:R:3:forces:R:3 energy=-46.60312651311172 pbc="F F F"
I        0.00000000       0.00000000       0.00000000       0.00000000       0.00000000      -0.12438795
I        0.00000000       0.00000000       5.11818182       0.00000000       0.00000000       0.12438795
2
Properties=species:S:1:pos:R:3:forces:R:3 energy=-46.61009427103894 pbc="F F F"
I        0.00000000       0.00000000       0.00000000       0.00000000       0.00000000      -0.11213599
I        0.00000000       0.00000000       5.17696970       0.00000000       0.00000000       0.11213599
2
Properties=species:S:1:pos:R:3:forces:R:3 energy=-46.61624410855175 pbc="F F F"
I        0.00000000       0.00000000       0.00000000       0.00000000       0.00000000      -0.09640914
I        0.00000000       0.00000000       5.23575758       0.00000000       0.00000000       0.09640914
2
Properties=species:S:1:pos:R:3:forces:R:3 energy=-46.62135160949894 pbc="F F F"
I        0.00000000       0.00000000       0.00000000       0.00000000       0.00000000      -0.07683272
I        0.00000000       0.00000000       5.29454545       0.00000000       0.00000000       0.07683272
2
Properties=species:S:1:pos:R:3:forces:R:3 energy=-46.6252266947564 pbc="F F F"
I        0.00000000       0.00000000       0.00000000       0.00000000       0.00000000      -0.05493637
I        0.00000000       0.00000000       5.35333333       0.00000000       0.00000000       0.05493637
2
Properties=species:S:1:pos:R:3:forces:R:3 energy=-46.62787001372767 pbc="F F F"
I        0.00000000       0.00000000       0.00000000       0.00000000       0.00000000      -0.03601205
I        0.00000000       0.00000000       5.41212121       0.00000000       0.00000000       0.03601205
2
Properties=species:S:1:pos:R:3:forces:R:3 energy=-46.6296255120397 pbc="F F F"
I        0.00000000       0.00000000       0.00000000       0.00000000       0.00000000      -0.02499610
I        0.00000000       0.00000000       5.47090909       0.00000000       0.00000000       0.02499610
2
Properties=species:S:1:pos:R:3:forces:R:3 energy=-46.63084093655345 pbc="F F F"
I        0.00000000       0.00000000       0.00000000       0.00000000       0.00000000      -0.01555410
I        0.00000000       0.00000000       5.52969697       0.00000000       0.00000000       0.01555410
2
Properties=species:S:1:pos:R:3:forces:R:3 energy=-46.63130705467096 pbc="F F F"
I        0.00000000       0.00000000       0.00000000       0.00000000       0.00000000       0.00063579
I        0.00000000       0.00000000       5.58848485       0.00000000       0.00000000      -0.00063579
2
Properties=species:S:1:pos:R:3:forces:R:3 energy=-46.630787894483504 pbc="F F F"
I        0.00000000       0.00000000       0.00000000       0.00000000       0.00000000       0.01588279
I        0.00000000       0.00000000       5.64727273       0.00000000       0.00000000      -0.01588279
2
Properties=species:S:1:pos:R:3:forces:R:3 energy=-46.62964253607006 pbc="F F F"
I        0.00000000       0.00000000       0.00000000       0.00000000       0.00000000       0.02121040
I        0.00000000       0.00000000       5.70606061       0.00000000       0.00000000      -0.02121040
2
Properties=species:S:1:pos:R:3:forces:R:3 energy=-46.62843601396014 pbc="F F F"
I        0.00000000       0.00000000       0.00000000       0.00000000       0.00000000       0.01932736
I        0.00000000       0.00000000       5.76484848       0.00000000       0.00000000      -0.01932736
2
Properties=species:S:1:pos:R:3:forces:R:3 energy=-46.6273861773188 pbc="F F F"
I        0.00000000       0.00000000       0.00000000       0.00000000       0.00000000       0.01621749
I        0.00000000       0.00000000       5.82363636       0.00000000       0.00000000      -0.01621749
2
Properties=species:S:1:pos:R:3:forces:R:3 energy=-46.62656967845122 pbc="F F F"
I        0.00000000       0.00000000       0.00000000       0.00000000       0.00000000       0.01133436
I        0.00000000       0.00000000       5.88242424       0.00000000       0.00000000      -0.01133436
2
Properties=species:S:1:pos:R:3:forces:R:3 energy=-46.62607457574053 pbc="F F F"
I        0.00000000       0.00000000       0.00000000       0.00000000       0.00000000       0.00567202
I        0.00000000       0.00000000       5.94121212       0.00000000       0.00000000      -0.00567202
2
Properties=species:S:1:pos:R:3:forces:R:3 energy=-46.62583628265844 pbc="F F F"
I        0.00000000       0.00000000       0.00000000       0.00000000       0.00000000       0.00316571
I        0.00000000       0.00000000       6.00000000       0.00000000       0.00000000      -0.00316571
