2
Properties=species:S:1:pos:R:3:forces:R:3 energy=3112.6016560684316 pbc="F F F"
In       0.00000000       0.00000000       0.00000000       0.00000000       0.00000000 -138626.06250000
In       0.00000000       0.00000000       0.18000000       0.00000000       0.00000000  138626.06250000
2
Properties=species:S:1:pos:R:3:forces:R:3 energy=-1716.8819865096934 pbc="F F F"
In       0.00000000       0.00000000       0.00000000       0.00000000       0.00000000  -44364.42968750
In       0.00000000       0.00000000       0.23878788       0.00000000       0.00000000   44364.42968750
2
Properties=species:S:1:pos:R:3:forces:R:3 energy=-3223.2926310409434 pbc="F F F"
In       0.00000000       0.00000000       0.00000000       0.00000000       0.00000000  -11492.91796875
In       0.00000000       0.00000000       0.29757576       0.00000000       0.00000000   11492.91796875
2
Properties=species:S:1:pos:R:3:forces:R:3 energy=-3372.4313029159434 pbc="F F F"
In       0.00000000       0.00000000       0.00000000       0.00000000       0.00000000    4975.28759766
In       0.00000000       0.00000000       0.35636364       0.00000000       0.00000000   -4975.28759766
2
Properties=species:S:1:pos:R:3:forces:R:3 energy=-2766.3307169784434 pbc="F F F"
In       0.00000000       0.00000000       0.00000000       0.00000000       0.00000000   14765.35546875
In       0.00000000       0.00000000       0.41515152       0.00000000       0.00000000  -14765.35546875
2
Properties=species:S:1:pos:R:3:forces:R:3 energy=-1729.046903501089 pbc="F F F"
In       0.00000000       0.00000000       0.00000000       0.00000000       0.00000000   19509.12304688
In       0.00000000       0.00000000       0.47393939       0.00000000       0.00000000  -19509.12304688
2
Properties=species:S:1:pos:R:3:forces:R:3 energy=-605.0780924643487 pbc="F F F"
In       0.00000000       0.00000000       0.00000000       0.00000000       0.00000000   17578.64257812
In       0.00000000       0.00000000       0.53272727       0.00000000       0.00000000  -17578.64257812
2
Properties=species:S:1:pos:R:3:forces:R:3 energy=25.901640051454812 pbc="F F F"
In       0.00000000       0.00000000       0.00000000       0.00000000       0.00000000    3512.49169922
In       0.00000000       0.00000000       0.59151515       0.00000000       0.00000000   -3512.49169922
2
Properties=species:S:1:pos:R:3:forces:R:3 energy=124.63702595098194 pbc="F F F"
In       0.00000000       0.00000000       0.00000000       0.00000000       0.00000000    2759.35595703
In       0.00000000       0.00000000       0.65030303       0.00000000       0.00000000   -2759.35595703
2
Properties=species:S:1:pos:R:3:forces:R:3 energy=172.76420796336157 pbc="F F F"
In       0.00000000       0.00000000       0.00000000       0.00000000       0.00000000      52.59396744
In       0.00000000       0.00000000       0.70909091       0.00000000       0.00000000     -52.59396744
2
Properties=species:S:1:pos:R:3:forces:R:3 energy=131.60482992189918 pbc="F F F"
In       0.00000000       0.00000000       0.00000000       0.00000000       0.00000000    -802.01379395
In       0.00000000       0.00000000       0.76787879       0.00000000       0.00000000     802.01379395
2
Properties=species:S:1:pos:R:3:forces:R:3 energy=91.05742087695327 pbc="F F F"
In       0.00000000       0.00000000       0.00000000       0.00000000       0.00000000    -548.87689209
In       0.00000000       0.00000000       0.82666667       0.00000000       0.00000000     548.87689209
2
Properties=species:S:1:pos:R:3:forces:R:3 energy=66.8938924551613 pbc="F F F"
In       0.00000000       0.00000000       0.00000000       0.00000000       0.00000000    -262.90283203
In       0.00000000       0.00000000       0.88545455       0.00000000       0.00000000     262.90283203
2
Properties=species:S:1:pos:R:3:forces:R:3 energy=58.665136531952015 pbc="F F F"
In       0.00000000       0.00000000       0.00000000       0.00000000       0.00000000     -65.57389069
In       0.00000000       0.00000000       0.94424242       0.00000000       0.00000000      65.57389069
2
Properties=species:S:1:pos:R:3:forces:R:3 energy=54.727346652973694 pbc="F F F"
In       0.00000000       0.00000000       0.00000000       0.00000000       0.00000000     -96.17636108
In       0.00000000       0.00000000       1.00303030       0.00000000       0.00000000      96.17636108
2
Properties=species:S:1:pos:R:3:forces:R:3 energy=47.41877584421831 pbc="F F F"
In       0.00000000       0.00000000       0.00000000       0.00000000       0.00000000    -141.68792725
In       0.00000000       0.00000000       1.06181818       0.00000000       0.00000000     141.68792725
2
Properties=species:S:1:pos:R:3:forces:R:3 energy=37.346044894260075 pbc="F F F"
In       0.00000000       0.00000000       0.00000000       0.00000000       0.00000000    -183.21313477
In       0.00000000       0.00000000       1.12060606       0.00000000       0.00000000     183.21313477
2
Properties=species:S:1:pos:R:3:forces:R:3 energy=26.647863830615346 pbc="F F F"
In       0.00000000       0.00000000       0.00000000       0.00000000       0.00000000    -182.24935913
In       0.00000000       0.00000000       1.17939394       0.00000000       0.00000000     182.24935913
2
Properties=species:S:1:pos:R:3:forces:R:3 energy=15.249792655594444 pbc="F F F"
In       0.00000000       0.00000000       0.00000000       0.00000000       0.00000000    -203.41125488
In       0.00000000       0.00000000       1.23818182       0.00000000       0.00000000     203.41125488
2
Properties=species:S:1:pos:R:3:forces:R:3 energy=3.900957810651141 pbc="F F F"
In       0.00000000       0.00000000       0.00000000       0.00000000       0.00000000    -174.90655518
In       0.00000000       0.00000000       1.29696970       0.00000000       0.00000000     174.90655518
2
Properties=species:S:1:pos:R:3:forces:R:3 energy=-5.00993067828213 pbc="F F F"
In       0.00000000       0.00000000       0.00000000       0.00000000       0.00000000    -129.07675171
In       0.00000000       0.00000000       1.35575758       0.00000000       0.00000000     129.07675171
2
Properties=species:S:1:pos:R:3:forces:R:3 energy=-11.503853635870884 pbc="F F F"
In       0.00000000       0.00000000       0.00000000       0.00000000       0.00000000     -93.95845795
In       0.00000000       0.00000000       1.41454545       0.00000000       0.00000000      93.95845795
2
Properties=species:S:1:pos:R:3:forces:R:3 energy=-16.282446415705294 pbc="F F F"
In       0.00000000       0.00000000       0.00000000       0.00000000       0.00000000     -70.47485352
In       0.00000000       0.00000000       1.47333333       0.00000000       0.00000000      70.47485352
2
Properties=species:S:1:pos:R:3:forces:R:3 energy=-20.001701515424507 pbc="F F F"
In       0.00000000       0.00000000       0.00000000       0.00000000       0.00000000     -57.58222961
In       0.00000000       0.00000000       1.53212121       0.00000000       0.00000000      57.58222961
2
Properties=species:S:1:pos:R:3:forces:R:3 energy=-23.173593257865992 pbc="F F F"
In       0.00000000       0.00000000       0.00000000       0.00000000       0.00000000     -50.88317490
In       0.00000000       0.00000000       1.59090909       0.00000000       0.00000000      50.88317490
2
Properties=species:S:1:pos:R:3:forces:R:3 energy=-26.013850390916033 pbc="F F F"
In       0.00000000       0.00000000       0.00000000       0.00000000       0.00000000     -45.80426025
In       0.00000000       0.00000000       1.64969697       0.00000000       0.00000000      45.80426025
2
Properties=species:S:1:pos:R:3:forces:R:3 energy=-28.55725721733604 pbc="F F F"
In       0.00000000       0.00000000       0.00000000       0.00000000       0.00000000     -40.67907333
In       0.00000000       0.00000000       1.70848485       0.00000000       0.00000000      40.67907333
2
Properties=species:S:1:pos:R:3:forces:R:3 energy=-30.792844556923725 pbc="F F F"
In       0.00000000       0.00000000       0.00000000       0.00000000       0.00000000     -35.37240601
In       0.00000000       0.00000000       1.76727273       0.00000000       0.00000000      35.37240601
2
Properties=species:S:1:pos:R:3:forces:R:3 energy=-32.72026907187803 pbc="F F F"
In       0.00000000       0.00000000       0.00000000       0.00000000       0.00000000     -30.27268219
In       0.00000000       0.00000000       1.82606061       0.00000000       0.00000000      30.27268219
2
Properties=species:S:1:pos:R:3:forces:R:3 energy=-34.36400583926436 pbc="F F F"
In       0.00000000       0.00000000       0.00000000       0.00000000       0.00000000     -25.76682281
In       0.00000000       0.00000000       1.88484848       0.00000000       0.00000000      25.76682281
2
Properties=species:S:1:pos:R:3:forces:R:3 energy=-35.76417782116389 pbc="F F F"
In       0.00000000       0.00000000       0.00000000       0.00000000       0.00000000     -21.98530006
In       0.00000000       0.00000000       1.94363636       0.00000000       0.00000000      21.98530006
2
Properties=species:S:1:pos:R:3:forces:R:3 energy=-36.96135811947884 pbc="F F F"
In       0.00000000       0.00000000       0.00000000       0.00000000       0.00000000     -18.83426094
In       0.00000000       0.00000000       2.00242424       0.00000000       0.00000000      18.83426094
2
Properties=species:S:1:pos:R:3:forces:R:3 energy=-37.987292618719195 pbc="F F F"
In       0.00000000       0.00000000       0.00000000       0.00000000       0.00000000     -16.12646866
In       0.00000000       0.00000000       2.06121212       0.00000000       0.00000000      16.12646866
2
Properties=species:S:1:pos:R:3:forces:R:3 energy=-38.862756142770536 pbc="F F F"
In       0.00000000       0.00000000       0.00000000       0.00000000       0.00000000     -13.69340038
In       0.00000000       0.00000000       2.12000000       0.00000000       0.00000000      13.69340038
2
Properties=species:S:1:pos:R:3:forces:R:3 energy=-39.6010810427371 pbc="F F F"
In       0.00000000       0.00000000       0.00000000       0.00000000       0.00000000     -11.45639038
In       0.00000000       0.00000000       2.17878788       0.00000000       0.00000000      11.45639038
2
Properties=species:S:1:pos:R:3:forces:R:3 energy=-40.21381821481162 pbc="F F F"
In       0.00000000       0.00000000       0.00000000       0.00000000       0.00000000      -9.42766190
In       0.00000000       0.00000000       2.23757576       0.00000000       0.00000000       9.42766190
2
Properties=species:S:1:pos:R:3:forces:R:3 energy=-40.71444117607191 pbc="F F F"
In       0.00000000       0.00000000       0.00000000       0.00000000       0.00000000      -7.64742708
In       0.00000000       0.00000000       2.29636364       0.00000000       0.00000000       7.64742708
2
Properties=species:S:1:pos:R:3:forces:R:3 energy=-41.118048537893095 pbc="F F F"
In       0.00000000       0.00000000       0.00000000       0.00000000       0.00000000      -6.12487602
In       0.00000000       0.00000000       2.35515152       0.00000000       0.00000000       6.12487602
2
Properties=species:S:1:pos:R:3:forces:R:3 energy=-41.439029417556675 pbc="F F F"
In       0.00000000       0.00000000       0.00000000       0.00000000       0.00000000      -4.82924366
In       0.00000000       0.00000000       2.41393939       0.00000000       0.00000000       4.82924366
2
Properties=species:S:1:pos:R:3:forces:R:3 energy=-41.689430754156454 pbc="F F F"
In       0.00000000       0.00000000       0.00000000       0.00000000       0.00000000      -3.71680188
In       0.00000000       0.00000000       2.47272727       0.00000000       0.00000000       3.71680188
2
Properties=species:S:1:pos:R:3:forces:R:3 energy=-41.879022202009665 pbc="F F F"
In       0.00000000       0.00000000       0.00000000       0.00000000       0.00000000      -2.75743961
In       0.00000000       0.00000000       2.53151515       0.00000000       0.00000000       2.75743961
2
Properties=species:S:1:pos:R:3:forces:R:3 energy=-42.016444364037326 pbc="F F F"
In       0.00000000       0.00000000       0.00000000       0.00000000       0.00000000      -1.94175959
In       0.00000000       0.00000000       2.59030303       0.00000000       0.00000000       1.94175959
2
Properties=species:S:1:pos:R:3:forces:R:3 energy=-42.110185358224065 pbc="F F F"
In       0.00000000       0.00000000       0.00000000       0.00000000       0.00000000      -1.27196586
In       0.00000000       0.00000000       2.64909091       0.00000000       0.00000000       1.27196586
2
Properties=species:S:1:pos:R:3:forces:R:3 energy=-42.16886312659857 pbc="F F F"
In       0.00000000       0.00000000       0.00000000       0.00000000       0.00000000      -0.74800718
In       0.00000000       0.00000000       2.70787879       0.00000000       0.00000000       0.74800718
2
Properties=species:S:1:pos:R:3:forces:R:3 energy=-42.200767639091524 pbc="F F F"
In       0.00000000       0.00000000       0.00000000       0.00000000       0.00000000      -0.35804901
In       0.00000000       0.00000000       2.76666667       0.00000000       0.00000000       0.35804901
2
Properties=species:S:1:pos:R:3:forces:R:3 energy=-42.21309024074065 pbc="F F F"
In       0.00000000       0.00000000       0.00000000       0.00000000       0.00000000      -0.07656491
In       0.00000000       0.00000000       2.82545455       0.00000000       0.00000000       0.07656491
2
Properties=species:S:1:pos:R:3:forces:R:3 energy=-42.21122929363305 pbc="F F F"
In       0.00000000       0.00000000       0.00000000       0.00000000       0.00000000       0.13048922
In       0.00000000       0.00000000       2.88424242       0.00000000       0.00000000      -0.13048922
2
Properties=species:S:1:pos:R:3:forces:R:3 energy=-42.19854977732564 pbc="F F F"
In       0.00000000       0.00000000       0.00000000       0.00000000       0.00000000       0.29632258
In       0.00000000       0.00000000       2.94303030       0.00000000       0.00000000      -0.29632258
2
Properties=species:S:1:pos:R:3:forces:R:3 energy=-42.17672673356013 pbc="F F F"
In       0.00000000       0.00000000       0.00000000       0.00000000       0.00000000       0.44439560
In       0.00000000       0.00000000       3.00181818       0.00000000       0.00000000      -0.44439560
2
Properties=species:S:1:pos:R:3:forces:R:3 energy=-42.1464515206192 pbc="F F F"
In       0.00000000       0.00000000       0.00000000       0.00000000       0.00000000       0.58436751
In       0.00000000       0.00000000       3.06060606       0.00000000       0.00000000      -0.58436751
2
Properties=species:S:1:pos:R:3:forces:R:3 energy=-42.10821491599669 pbc="F F F"
In       0.00000000       0.00000000       0.00000000       0.00000000       0.00000000       0.71429545
In       0.00000000       0.00000000       3.11939394       0.00000000       0.00000000      -0.71429545
2
Properties=species:S:1:pos:R:3:forces:R:3 energy=-42.062812154816584 pbc="F F F"
In       0.00000000       0.00000000       0.00000000       0.00000000       0.00000000       0.82663715
In       0.00000000       0.00000000       3.17818182       0.00000000       0.00000000      -0.82663715
2
Properties=species:S:1:pos:R:3:forces:R:3 energy=-42.01151160173037 pbc="F F F"
In       0.00000000       0.00000000       0.00000000       0.00000000       0.00000000       0.91409087
In       0.00000000       0.00000000       3.23696970       0.00000000       0.00000000      -0.91409087
2
Properties=species:S:1:pos:R:3:forces:R:3 energy=-41.95590382439654 pbc="F F F"
In       0.00000000       0.00000000       0.00000000       0.00000000       0.00000000       0.97284377
In       0.00000000       0.00000000       3.29575758       0.00000000       0.00000000      -0.97284377
2
Properties=species:S:1:pos:R:3:forces:R:3 energy=-41.897687677105104 pbc="F F F"
In       0.00000000       0.00000000       0.00000000       0.00000000       0.00000000       1.00321805
In       0.00000000       0.00000000       3.35454545       0.00000000       0.00000000      -1.00321805
2
Properties=species:S:1:pos:R:3:forces:R:3 energy=-41.83843445512401 pbc="F F F"
In       0.00000000       0.00000000       0.00000000       0.00000000       0.00000000       1.00886047
In       0.00000000       0.00000000       3.41333333       0.00000000       0.00000000      -1.00886047
2
Properties=species:S:1:pos:R:3:forces:R:3 energy=-41.77944288314205 pbc="F F F"
In       0.00000000       0.00000000       0.00000000       0.00000000       0.00000000       0.99544495
In       0.00000000       0.00000000       3.47212121       0.00000000       0.00000000      -0.99544495
2
Properties=species:S:1:pos:R:3:forces:R:3 energy=-41.72163796430934 pbc="F F F"
In       0.00000000       0.00000000       0.00000000       0.00000000       0.00000000       0.96956682
In       0.00000000       0.00000000       3.53090909       0.00000000       0.00000000      -0.96956682
2
Properties=species:S:1:pos:R:3:forces:R:3 energy=-41.66555628513882 pbc="F F F"
In       0.00000000       0.00000000       0.00000000       0.00000000       0.00000000       0.93798190
In       0.00000000       0.00000000       3.58969697       0.00000000       0.00000000      -0.93798190
2
Properties=species:S:1:pos:R:3:forces:R:3 energy=-41.611345295618705 pbc="F F F"
In       0.00000000       0.00000000       0.00000000       0.00000000       0.00000000       0.90682751
In       0.00000000       0.00000000       3.64848485       0.00000000       0.00000000      -0.90682751
2
Properties=species:S:1:pos:R:3:forces:R:3 energy=-41.5588344719253 pbc="F F F"
In       0.00000000       0.00000000       0.00000000       0.00000000       0.00000000       0.88071644
In       0.00000000       0.00000000       3.70727273       0.00000000       0.00000000      -0.88071644
2
Properties=species:S:1:pos:R:3:forces:R:3 energy=-41.50764714927885 pbc="F F F"
In       0.00000000       0.00000000       0.00000000       0.00000000       0.00000000       0.86214161
In       0.00000000       0.00000000       3.76606061       0.00000000       0.00000000      -0.86214161
2
Properties=species:S:1:pos:R:3:forces:R:3 energy=-41.45731292753575 pbc="F F F"
In       0.00000000       0.00000000       0.00000000       0.00000000       0.00000000       0.85144728
In       0.00000000       0.00000000       3.82484848       0.00000000       0.00000000      -0.85144728
2
Properties=species:S:1:pos:R:3:forces:R:3 energy=-41.40740879598047 pbc="F F F"
In       0.00000000       0.00000000       0.00000000       0.00000000       0.00000000       0.84726626
In       0.00000000       0.00000000       3.88363636       0.00000000       0.00000000      -0.84726626
2
Properties=species:S:1:pos:R:3:forces:R:3 energy=-41.357613140973456 pbc="F F F"
In       0.00000000       0.00000000       0.00000000       0.00000000       0.00000000       0.84721947
In       0.00000000       0.00000000       3.94242424       0.00000000       0.00000000      -0.84721947
2
Properties=species:S:1:pos:R:3:forces:R:3 energy=-41.30776734497972 pbc="F F F"
In       0.00000000       0.00000000       0.00000000       0.00000000       0.00000000       0.84862256
In       0.00000000       0.00000000       4.00121212       0.00000000       0.00000000      -0.84862256
2
Properties=species:S:1:pos:R:3:forces:R:3 energy=-41.25785708530167 pbc="F F F"
In       0.00000000       0.00000000       0.00000000       0.00000000       0.00000000       0.84904832
In       0.00000000       0.00000000       4.06000000       0.00000000       0.00000000      -0.84904832
2
Properties=species:S:1:pos:R:3:forces:R:3 energy=-41.20799352035412 pbc="F F F"
In       0.00000000       0.00000000       0.00000000       0.00000000       0.00000000       0.84670919
In       0.00000000       0.00000000       4.11878788       0.00000000       0.00000000      -0.84670919
2
Properties=species:S:1:pos:R:3:forces:R:3 energy=-41.15837910310876 pbc="F F F"
In       0.00000000       0.00000000       0.00000000       0.00000000       0.00000000       0.84059668
In       0.00000000       0.00000000       4.17757576       0.00000000       0.00000000      -0.84059668
2
Properties=species:S:1:pos:R:3:forces:R:3 energy=-41.10923901157803 pbc="F F F"
In       0.00000000       0.00000000       0.00000000       0.00000000       0.00000000       0.83045304
In       0.00000000       0.00000000       4.23636364       0.00000000       0.00000000      -0.83045304
2
Properties=species:S:1:pos:R:3:forces:R:3 energy=-41.06080976966371 pbc="F F F"
In       0.00000000       0.00000000       0.00000000       0.00000000       0.00000000       0.81658053
In       0.00000000       0.00000000       4.29515152       0.00000000       0.00000000      -0.81658053
2
Properties=species:S:1:pos:R:3:forces:R:3 energy=-41.0132896861867 pbc="F F F"
In       0.00000000       0.00000000       0.00000000       0.00000000       0.00000000       0.79960227
In       0.00000000       0.00000000       4.35393939       0.00000000       0.00000000      -0.79960227
2
Properties=species:S:1:pos:R:3:forces:R:3 energy=-40.966842707598246 pbc="F F F"
In       0.00000000       0.00000000       0.00000000       0.00000000       0.00000000       0.78019530
In       0.00000000       0.00000000       4.41272727       0.00000000       0.00000000      -0.78019530
2
Properties=species:S:1:pos:R:3:forces:R:3 energy=-40.921594608034326 pbc="F F F"
In       0.00000000       0.00000000       0.00000000       0.00000000       0.00000000       0.75887775
In       0.00000000       0.00000000       4.47151515       0.00000000       0.00000000      -0.75887775
2
Properties=species:S:1:pos:R:3:forces:R:3 energy=-40.877652081808954 pbc="F F F"
In       0.00000000       0.00000000       0.00000000       0.00000000       0.00000000       0.73585796
In       0.00000000       0.00000000       4.53030303       0.00000000       0.00000000      -0.73585796
2
Properties=species:S:1:pos:R:3:forces:R:3 energy=-40.83511419225771 pbc="F F F"
In       0.00000000       0.00000000       0.00000000       0.00000000       0.00000000       0.71092916
In       0.00000000       0.00000000       4.58909091       0.00000000       0.00000000      -0.71092916
2
Properties=species:S:1:pos:R:3:forces:R:3 energy=-40.79411434924677 pbc="F F F"
In       0.00000000       0.00000000       0.00000000       0.00000000       0.00000000       0.68350679
In       0.00000000       0.00000000       4.64787879       0.00000000       0.00000000      -0.68350679
2
Properties=species:S:1:pos:R:3:forces:R:3 energy=-40.75481649447561 pbc="F F F"
In       0.00000000       0.00000000       0.00000000       0.00000000       0.00000000       0.65275025
In       0.00000000       0.00000000       4.70666667       0.00000000       0.00000000      -0.65275025
2
Properties=species:S:1:pos:R:3:forces:R:3 energy=-40.7174456206391 pbc="F F F"
In       0.00000000       0.00000000       0.00000000       0.00000000       0.00000000       0.61789429
In       0.00000000       0.00000000       4.76545455       0.00000000       0.00000000      -0.61789429
2
Properties=species:S:1:pos:R:3:forces:R:3 energy=-40.682249637126056 pbc="F F F"
In       0.00000000       0.00000000       0.00000000       0.00000000       0.00000000       0.57865745
In       0.00000000       0.00000000       4.82424242       0.00000000       0.00000000      -0.57865745
2
Properties=species:S:1:pos:R:3:forces:R:3 energy=-40.64948411360614 pbc="F F F"
In       0.00000000       0.00000000       0.00000000       0.00000000       0.00000000       0.53569400
In       0.00000000       0.00000000       4.88303030       0.00000000       0.00000000      -0.53569400
2
Properties=species:S:1:pos:R:3:forces:R:3 energy=-40.61930928082775 pbc="F F F"
In       0.00000000       0.00000000       0.00000000       0.00000000       0.00000000       0.49075469
In       0.00000000       0.00000000       4.94181818       0.00000000       0.00000000      -0.49075469
2
Properties=species:S:1:pos:R:3:forces:R:3 energy=-40.59176715510574 pbc="F F F"
In       0.00000000       0.00000000       0.00000000       0.00000000       0.00000000       0.44657612
In       0.00000000       0.00000000       5.00060606       0.00000000       0.00000000      -0.44657612
2
Properties=species:S:1:pos:R:3:forces:R:3 energy=-40.56672430994288 pbc="F F F"
In       0.00000000       0.00000000       0.00000000       0.00000000       0.00000000       0.40615445
In       0.00000000       0.00000000       5.05939394       0.00000000       0.00000000      -0.40615445
2
Properties=species:S:1:pos:R:3:forces:R:3 energy=-40.54389477926058 pbc="F F F"
In       0.00000000       0.00000000       0.00000000       0.00000000       0.00000000       0.37166893
In       0.00000000       0.00000000       5.11818182       0.00000000       0.00000000      -0.37166893
2
Properties=species:S:1:pos:R:3:forces:R:3 energy=-40.52290489062141 pbc="F F F"
In       0.00000000       0.00000000       0.00000000       0.00000000       0.00000000       0.34326041
In       0.00000000       0.00000000       5.17696970       0.00000000       0.00000000      -0.34326041
2
Properties=species:S:1:pos:R:3:forces:R:3 energy=-40.5034725845109 pbc="F F F"
In       0.00000000       0.00000000       0.00000000       0.00000000       0.00000000       0.31808448
In       0.00000000       0.00000000       5.23575758       0.00000000       0.00000000      -0.31808448
2
Properties=species:S:1:pos:R:3:forces:R:3 energy=-40.48555615426881 pbc="F F F"
In       0.00000000       0.00000000       0.00000000       0.00000000       0.00000000       0.29052743
In       0.00000000       0.00000000       5.29454545       0.00000000       0.00000000      -0.29052743
2
Properties=species:S:1:pos:R:3:forces:R:3 energy=-40.46945345989624 pbc="F F F"
In       0.00000000       0.00000000       0.00000000       0.00000000       0.00000000       0.25616950
In       0.00000000       0.00000000       5.35333333       0.00000000       0.00000000      -0.25616950
2
Properties=species:S:1:pos:R:3:forces:R:3 energy=-40.455447139827164 pbc="F F F"
In       0.00000000       0.00000000       0.00000000       0.00000000       0.00000000       0.22183925
In       0.00000000       0.00000000       5.41212121       0.00000000       0.00000000      -0.22183925
2
Properties=species:S:1:pos:R:3:forces:R:3 energy=-40.4429730100923 pbc="F F F"
In       0.00000000       0.00000000       0.00000000       0.00000000       0.00000000       0.20699877
In       0.00000000       0.00000000       5.47090909       0.00000000       0.00000000      -0.20699877
2
Properties=species:S:1:pos:R:3:forces:R:3 energy=-40.43078028239624 pbc="F F F"
In       0.00000000       0.00000000       0.00000000       0.00000000       0.00000000       0.20738310
In       0.00000000       0.00000000       5.52969697       0.00000000       0.00000000      -0.20738310
2
Properties=species:S:1:pos:R:3:forces:R:3 energy=-40.41898768277582 pbc="F F F"
In       0.00000000       0.00000000       0.00000000       0.00000000       0.00000000       0.18912303
In       0.00000000       0.00000000       5.58848485       0.00000000       0.00000000      -0.18912303
2
Properties=species:S:1:pos:R:3:forces:R:3 energy=-40.408881263933495 pbc="F F F"
In       0.00000000       0.00000000       0.00000000       0.00000000       0.00000000       0.15511879
In       0.00000000       0.00000000       5.64727273       0.00000000       0.00000000      -0.15511879
2
Properties=species:S:1:pos:R:3:forces:R:3 energy=-40.40036999740945 pbc="F F F"
In       0.00000000       0.00000000       0.00000000       0.00000000       0.00000000       0.14000228
In       0.00000000       0.00000000       5.70606061       0.00000000       0.00000000      -0.14000228
2
Properties=species:S:1:pos:R:3:forces:R:3 energy=-40.391817932445605 pbc="F F F"
In       0.00000000       0.00000000       0.00000000       0.00000000       0.00000000       0.15197402
In       0.00000000       0.00000000       5.76484848       0.00000000       0.00000000      -0.15197402
2
Properties=species:S:1:pos:R:3:forces:R:3 energy=-40.382931907560504 pbc="F F F"
In       0.00000000       0.00000000       0.00000000       0.00000000       0.00000000       0.14261110
In       0.00000000       0.00000000       5.82363636       0.00000000       0.00000000      -0.14261110
2
Properties=species:S:1:pos:R:3:forces:R:3 energy=-40.37602420267292 pbc="F F F"
In       0.00000000       0.00000000       0.00000000       0.00000000       0.00000000       0.08805356
In       0.00000000       0.00000000       5.88242424       0.00000000       0.00000000      -0.08805356
2
Properties=species:S:1:pos:R:3:forces:R:3 energy=-40.372686137341454 pbc="F F F"
In       0.00000000       0.00000000       0.00000000       0.00000000       0.00000000       0.02832131
In       0.00000000       0.00000000       5.94121212       0.00000000       0.00000000      -0.02832131
2
Properties=species:S:1:pos:R:3:forces:R:3 energy=-40.37196843324232 pbc="F F F"
In       0.00000000       0.00000000       0.00000000       0.00000000       0.00000000       0.00409678
In       0.00000000       0.00000000       6.00000000       0.00000000       0.00000000      -0.00409678
