2
Properties=species:S:1:pos:R:3:forces:R:3 energy=-66757.20236748783 pbc="F F F"
Lu       0.00000000       0.00000000       0.00000000       0.00000000       0.00000000 -235043.32812500
Lu       0.00000000       0.00000000       0.18000000       0.00000000       0.00000000  235043.32812500
2
Properties=species:S:1:pos:R:3:forces:R:3 energy=-74359.81955498783 pbc="F F F"
Lu       0.00000000       0.00000000       0.00000000       0.00000000       0.00000000  -56253.88671875
Lu       0.00000000       0.00000000       0.23878788       0.00000000       0.00000000   56253.88671875
2
Properties=species:S:1:pos:R:3:forces:R:3 energy=-75198.50705498783 pbc="F F F"
Lu       0.00000000       0.00000000       0.00000000       0.00000000       0.00000000   21405.09570312
Lu       0.00000000       0.00000000       0.29757576       0.00000000       0.00000000  -21405.09570312
2
Properties=species:S:1:pos:R:3:forces:R:3 energy=-72137.58517998783 pbc="F F F"
Lu       0.00000000       0.00000000       0.00000000       0.00000000       0.00000000   82352.92968750
Lu       0.00000000       0.00000000       0.35636364       0.00000000       0.00000000  -82352.92968750
2
Properties=species:S:1:pos:R:3:forces:R:3 energy=-65474.30002373782 pbc="F F F"
Lu       0.00000000       0.00000000       0.00000000       0.00000000       0.00000000  144738.28125000
Lu       0.00000000       0.00000000       0.41515152       0.00000000       0.00000000 -144738.28125000
2
Properties=species:S:1:pos:R:3:forces:R:3 energy=-55162.20627373466 pbc="F F F"
Lu       0.00000000       0.00000000       0.00000000       0.00000000       0.00000000  204516.29687500
Lu       0.00000000       0.00000000       0.47393939       0.00000000       0.00000000 -204516.29687500
2
Properties=species:S:1:pos:R:3:forces:R:3 energy=-41810.05002373466 pbc="F F F"
Lu       0.00000000       0.00000000       0.00000000       0.00000000       0.00000000  244620.95312500
Lu       0.00000000       0.00000000       0.53272727       0.00000000       0.00000000 -244620.95312500
2
Properties=species:S:1:pos:R:3:forces:R:3 energy=-27212.05588310649 pbc="F F F"
Lu       0.00000000       0.00000000       0.00000000       0.00000000       0.00000000  243748.84375000
Lu       0.00000000       0.00000000       0.59151515       0.00000000       0.00000000 -243748.84375000
2
Properties=species:S:1:pos:R:3:forces:R:3 energy=-14058.857640914235 pbc="F F F"
Lu       0.00000000       0.00000000       0.00000000       0.00000000       0.00000000  201062.64062500
Lu       0.00000000       0.00000000       0.65030303       0.00000000       0.00000000 -201062.64062500
2
Properties=species:S:1:pos:R:3:forces:R:3 energy=-5037.499730750065 pbc="F F F"
Lu       0.00000000       0.00000000       0.00000000       0.00000000       0.00000000  105894.88281250
Lu       0.00000000       0.00000000       0.70909091       0.00000000       0.00000000 -105894.88281250
2
Properties=species:S:1:pos:R:3:forces:R:3 energy=-1027.3357903108742 pbc="F F F"
Lu       0.00000000       0.00000000       0.00000000       0.00000000       0.00000000   35459.31640625
Lu       0.00000000       0.00000000       0.76787879       0.00000000       0.00000000  -35459.31640625
2
Properties=species:S:1:pos:R:3:forces:R:3 energy=-130.4318138514377 pbc="F F F"
Lu       0.00000000       0.00000000       0.00000000       0.00000000       0.00000000    2261.17846680
Lu       0.00000000       0.00000000       0.82666667       0.00000000       0.00000000   -2261.17846680
2
Properties=species:S:1:pos:R:3:forces:R:3 energy=-62.68113481314967 pbc="F F F"
Lu       0.00000000       0.00000000       0.00000000       0.00000000       0.00000000     746.26141357
Lu       0.00000000       0.00000000       0.88545455       0.00000000       0.00000000    -746.26141357
2
Properties=species:S:1:pos:R:3:forces:R:3 energy=-27.898976881938314 pbc="F F F"
Lu       0.00000000       0.00000000       0.00000000       0.00000000       0.00000000     550.87426758
Lu       0.00000000       0.00000000       0.94424242       0.00000000       0.00000000    -550.87426758
2
Properties=species:S:1:pos:R:3:forces:R:3 energy=-49.04710916022364 pbc="F F F"
Lu       0.00000000       0.00000000       0.00000000       0.00000000       0.00000000    -104.08840179
Lu       0.00000000       0.00000000       1.00303030       0.00000000       0.00000000     104.08840179
2
Properties=species:S:1:pos:R:3:forces:R:3 energy=-53.953305694273304 pbc="F F F"
Lu       0.00000000       0.00000000       0.00000000       0.00000000       0.00000000     -46.42571259
Lu       0.00000000       0.00000000       1.06181818       0.00000000       0.00000000      46.42571259
2
Properties=species:S:1:pos:R:3:forces:R:3 energy=-55.41086329013258 pbc="F F F"
Lu       0.00000000       0.00000000       0.00000000       0.00000000       0.00000000     -10.54345608
Lu       0.00000000       0.00000000       1.12060606       0.00000000       0.00000000      10.54345608
2
Properties=species:S:1:pos:R:3:forces:R:3 energy=-55.32211043742851 pbc="F F F"
Lu       0.00000000       0.00000000       0.00000000       0.00000000       0.00000000      13.14317894
Lu       0.00000000       0.00000000       1.17939394       0.00000000       0.00000000     -13.14317894
2
Properties=species:S:1:pos:R:3:forces:R:3 energy=-54.17189133917302 pbc="F F F"
Lu       0.00000000       0.00000000       0.00000000       0.00000000       0.00000000      21.92512703
Lu       0.00000000       0.00000000       1.23818182       0.00000000       0.00000000     -21.92512703
2
Properties=species:S:1:pos:R:3:forces:R:3 energy=-53.16584868447406 pbc="F F F"
Lu       0.00000000       0.00000000       0.00000000       0.00000000       0.00000000      10.03507805
Lu       0.00000000       0.00000000       1.29696970       0.00000000       0.00000000     -10.03507805
2
Properties=species:S:1:pos:R:3:forces:R:3 energy=-53.09887382600175 pbc="F F F"
Lu       0.00000000       0.00000000       0.00000000       0.00000000       0.00000000      -7.64652491
Lu       0.00000000       0.00000000       1.35575758       0.00000000       0.00000000       7.64652491
2
Properties=species:S:1:pos:R:3:forces:R:3 energy=-53.97869914561006 pbc="F F F"
Lu       0.00000000       0.00000000       0.00000000       0.00000000       0.00000000     -21.14704704
Lu       0.00000000       0.00000000       1.41454545       0.00000000       0.00000000      21.14704704
2
Properties=species:S:1:pos:R:3:forces:R:3 energy=-55.44165046997716 pbc="F F F"
Lu       0.00000000       0.00000000       0.00000000       0.00000000       0.00000000     -27.49032784
Lu       0.00000000       0.00000000       1.47333333       0.00000000       0.00000000      27.49032784
2
Properties=species:S:1:pos:R:3:forces:R:3 energy=-57.102290773129106 pbc="F F F"
Lu       0.00000000       0.00000000       0.00000000       0.00000000       0.00000000     -28.25988007
Lu       0.00000000       0.00000000       1.53212121       0.00000000       0.00000000      28.25988007
2
Properties=species:S:1:pos:R:3:forces:R:3 energy=-58.69232475589258 pbc="F F F"
Lu       0.00000000       0.00000000       0.00000000       0.00000000       0.00000000     -25.45851898
Lu       0.00000000       0.00000000       1.59090909       0.00000000       0.00000000      25.45851898
2
Properties=species:S:1:pos:R:3:forces:R:3 energy=-60.09034966036604 pbc="F F F"
Lu       0.00000000       0.00000000       0.00000000       0.00000000       0.00000000     -22.25315475
Lu       0.00000000       0.00000000       1.64969697       0.00000000       0.00000000      22.25315475
2
Properties=species:S:1:pos:R:3:forces:R:3 energy=-61.31842586499749 pbc="F F F"
Lu       0.00000000       0.00000000       0.00000000       0.00000000       0.00000000     -19.48566628
Lu       0.00000000       0.00000000       1.70848485       0.00000000       0.00000000      19.48566628
2
Properties=species:S:1:pos:R:3:forces:R:3 energy=-62.37068253010428 pbc="F F F"
Lu       0.00000000       0.00000000       0.00000000       0.00000000       0.00000000     -16.24996948
Lu       0.00000000       0.00000000       1.76727273       0.00000000       0.00000000      16.24996948
2
Properties=species:S:1:pos:R:3:forces:R:3 energy=-63.234054296960814 pbc="F F F"
Lu       0.00000000       0.00000000       0.00000000       0.00000000       0.00000000     -13.27773476
Lu       0.00000000       0.00000000       1.82606061       0.00000000       0.00000000      13.27773476
2
Properties=species:S:1:pos:R:3:forces:R:3 energy=-63.958582342122796 pbc="F F F"
Lu       0.00000000       0.00000000       0.00000000       0.00000000       0.00000000     -11.63337421
Lu       0.00000000       0.00000000       1.88484848       0.00000000       0.00000000      11.63337421
2
Properties=species:S:1:pos:R:3:forces:R:3 energy=-64.63167279394318 pbc="F F F"
Lu       0.00000000       0.00000000       0.00000000       0.00000000       0.00000000     -11.49039268
Lu       0.00000000       0.00000000       1.94363636       0.00000000       0.00000000      11.49039268
2
Properties=species:S:1:pos:R:3:forces:R:3 energy=-65.32887570167338 pbc="F F F"
Lu       0.00000000       0.00000000       0.00000000       0.00000000       0.00000000     -12.30880833
Lu       0.00000000       0.00000000       2.00242424       0.00000000       0.00000000      12.30880833
2
Properties=species:S:1:pos:R:3:forces:R:3 energy=-66.07559310431085 pbc="F F F"
Lu       0.00000000       0.00000000       0.00000000       0.00000000       0.00000000     -12.96145439
Lu       0.00000000       0.00000000       2.06121212       0.00000000       0.00000000      12.96145439
2
Properties=species:S:1:pos:R:3:forces:R:3 energy=-66.82931397909753 pbc="F F F"
Lu       0.00000000       0.00000000       0.00000000       0.00000000       0.00000000     -12.45697880
Lu       0.00000000       0.00000000       2.12000000       0.00000000       0.00000000      12.45697880
2
Properties=species:S:1:pos:R:3:forces:R:3 energy=-67.51819227496703 pbc="F F F"
Lu       0.00000000       0.00000000       0.00000000       0.00000000       0.00000000     -10.85102463
Lu       0.00000000       0.00000000       2.17878788       0.00000000       0.00000000      10.85102463
2
Properties=species:S:1:pos:R:3:forces:R:3 energy=-68.09765702630222 pbc="F F F"
Lu       0.00000000       0.00000000       0.00000000       0.00000000       0.00000000      -8.85172367
Lu       0.00000000       0.00000000       2.23757576       0.00000000       0.00000000       8.85172367
2
Properties=species:S:1:pos:R:3:forces:R:3 energy=-68.56113927847822 pbc="F F F"
Lu       0.00000000       0.00000000       0.00000000       0.00000000       0.00000000      -6.95203400
Lu       0.00000000       0.00000000       2.29636364       0.00000000       0.00000000       6.95203400
2
Properties=species:S:1:pos:R:3:forces:R:3 energy=-68.91987707261879 pbc="F F F"
Lu       0.00000000       0.00000000       0.00000000       0.00000000       0.00000000      -5.29596615
Lu       0.00000000       0.00000000       2.35515152       0.00000000       0.00000000       5.29596615
2
Properties=species:S:1:pos:R:3:forces:R:3 energy=-69.1890452174258 pbc="F F F"
Lu       0.00000000       0.00000000       0.00000000       0.00000000       0.00000000      -3.90702271
Lu       0.00000000       0.00000000       2.41393939       0.00000000       0.00000000       3.90702271
2
Properties=species:S:1:pos:R:3:forces:R:3 energy=-69.38484848669498 pbc="F F F"
Lu       0.00000000       0.00000000       0.00000000       0.00000000       0.00000000      -2.80376768
Lu       0.00000000       0.00000000       2.47272727       0.00000000       0.00000000       2.80376768
2
Properties=species:S:1:pos:R:3:forces:R:3 energy=-69.52456738934754 pbc="F F F"
Lu       0.00000000       0.00000000       0.00000000       0.00000000       0.00000000      -1.99890745
Lu       0.00000000       0.00000000       2.53151515       0.00000000       0.00000000       1.99890745
2
Properties=species:S:1:pos:R:3:forces:R:3 energy=-69.62539851096483 pbc="F F F"
Lu       0.00000000       0.00000000       0.00000000       0.00000000       0.00000000      -1.47464216
Lu       0.00000000       0.00000000       2.59030303       0.00000000       0.00000000       1.47464216
2
Properties=species:S:1:pos:R:3:forces:R:3 energy=-69.70231064125377 pbc="F F F"
Lu       0.00000000       0.00000000       0.00000000       0.00000000       0.00000000      -1.17192602
Lu       0.00000000       0.00000000       2.64909091       0.00000000       0.00000000       1.17192602
2
Properties=species:S:1:pos:R:3:forces:R:3 energy=-69.765755965191 pbc="F F F"
Lu       0.00000000       0.00000000       0.00000000       0.00000000       0.00000000      -0.99960262
Lu       0.00000000       0.00000000       2.70787879       0.00000000       0.00000000       0.99960262
2
Properties=species:S:1:pos:R:3:forces:R:3 energy=-69.8204722496653 pbc="F F F"
Lu       0.00000000       0.00000000       0.00000000       0.00000000       0.00000000      -0.86023355
Lu       0.00000000       0.00000000       2.76666667       0.00000000       0.00000000       0.86023355
2
Properties=species:S:1:pos:R:3:forces:R:3 energy=-69.86608555772607 pbc="F F F"
Lu       0.00000000       0.00000000       0.00000000       0.00000000       0.00000000      -0.68084586
Lu       0.00000000       0.00000000       2.82545455       0.00000000       0.00000000       0.68084586
2
Properties=species:S:1:pos:R:3:forces:R:3 energy=-69.8990938769062 pbc="F F F"
Lu       0.00000000       0.00000000       0.00000000       0.00000000       0.00000000      -0.42965108
Lu       0.00000000       0.00000000       2.88424242       0.00000000       0.00000000       0.42965108
2
Properties=species:S:1:pos:R:3:forces:R:3 energy=-69.91526278870276 pbc="F F F"
Lu       0.00000000       0.00000000       0.00000000       0.00000000       0.00000000      -0.11073314
Lu       0.00000000       0.00000000       2.94303030       0.00000000       0.00000000       0.11073314
2
Properties=species:S:1:pos:R:3:forces:R:3 energy=-69.91121997402003 pbc="F F F"
Lu       0.00000000       0.00000000       0.00000000       0.00000000       0.00000000       0.25344253
Lu       0.00000000       0.00000000       3.00181818       0.00000000       0.00000000      -0.25344253
2
Properties=species:S:1:pos:R:3:forces:R:3 energy=-69.88508846875477 pbc="F F F"
Lu       0.00000000       0.00000000       0.00000000       0.00000000       0.00000000       0.63662034
Lu       0.00000000       0.00000000       3.06060606       0.00000000       0.00000000      -0.63662034
2
Properties=species:S:1:pos:R:3:forces:R:3 energy=-69.83648668438713 pbc="F F F"
Lu       0.00000000       0.00000000       0.00000000       0.00000000       0.00000000       1.01386845
Lu       0.00000000       0.00000000       3.11939394       0.00000000       0.00000000      -1.01386845
2
Properties=species:S:1:pos:R:3:forces:R:3 energy=-69.76649018022839 pbc="F F F"
Lu       0.00000000       0.00000000       0.00000000       0.00000000       0.00000000       1.36034846
Lu       0.00000000       0.00000000       3.17818182       0.00000000       0.00000000      -1.36034846
2
Properties=species:S:1:pos:R:3:forces:R:3 energy=-69.67763942428022 pbc="F F F"
Lu       0.00000000       0.00000000       0.00000000       0.00000000       0.00000000       1.65099216
Lu       0.00000000       0.00000000       3.23696970       0.00000000       0.00000000      -1.65099216
2
Properties=species:S:1:pos:R:3:forces:R:3 energy=-69.57385570358414 pbc="F F F"
Lu       0.00000000       0.00000000       0.00000000       0.00000000       0.00000000       1.86615181
Lu       0.00000000       0.00000000       3.29575758       0.00000000       0.00000000      -1.86615181
2
Properties=species:S:1:pos:R:3:forces:R:3 energy=-69.45981569126798 pbc="F F F"
Lu       0.00000000       0.00000000       0.00000000       0.00000000       0.00000000       2.00067329
Lu       0.00000000       0.00000000       3.35454545       0.00000000       0.00000000      -2.00067329
2
Properties=species:S:1:pos:R:3:forces:R:3 energy=-69.33995184855858 pbc="F F F"
Lu       0.00000000       0.00000000       0.00000000       0.00000000       0.00000000       2.06793332
Lu       0.00000000       0.00000000       3.41333333       0.00000000       0.00000000      -2.06793332
2
Properties=species:S:1:pos:R:3:forces:R:3 energy=-69.21750648281413 pbc="F F F"
Lu       0.00000000       0.00000000       0.00000000       0.00000000       0.00000000       2.09289145
Lu       0.00000000       0.00000000       3.47212121       0.00000000       0.00000000      -2.09289145
2
Properties=species:S:1:pos:R:3:forces:R:3 energy=-69.0942646521913 pbc="F F F"
Lu       0.00000000       0.00000000       0.00000000       0.00000000       0.00000000       2.09787416
Lu       0.00000000       0.00000000       3.53090909       0.00000000       0.00000000      -2.09787416
2
Properties=species:S:1:pos:R:3:forces:R:3 energy=-68.97107300407114 pbc="F F F"
Lu       0.00000000       0.00000000       0.00000000       0.00000000       0.00000000       2.09092355
Lu       0.00000000       0.00000000       3.58969697       0.00000000       0.00000000      -2.09092355
2
Properties=species:S:1:pos:R:3:forces:R:3 energy=-68.8488086939094 pbc="F F F"
Lu       0.00000000       0.00000000       0.00000000       0.00000000       0.00000000       2.06392670
Lu       0.00000000       0.00000000       3.64848485       0.00000000       0.00000000      -2.06392670
2
Properties=species:S:1:pos:R:3:forces:R:3 energy=-68.72912706906833 pbc="F F F"
Lu       0.00000000       0.00000000       0.00000000       0.00000000       0.00000000       2.00011301
Lu       0.00000000       0.00000000       3.70727273       0.00000000       0.00000000      -2.00011301
2
Properties=species:S:1:pos:R:3:forces:R:3 energy=-68.61464474894291 pbc="F F F"
Lu       0.00000000       0.00000000       0.00000000       0.00000000       0.00000000       1.88560843
Lu       0.00000000       0.00000000       3.76606061       0.00000000       0.00000000      -1.88560843
2
Properties=species:S:1:pos:R:3:forces:R:3 energy=-68.50846664526549 pbc="F F F"
Lu       0.00000000       0.00000000       0.00000000       0.00000000       0.00000000       1.71865344
Lu       0.00000000       0.00000000       3.82484848       0.00000000       0.00000000      -1.71865344
2
Properties=species:S:1:pos:R:3:forces:R:3 energy=-68.41335432325586 pbc="F F F"
Lu       0.00000000       0.00000000       0.00000000       0.00000000       0.00000000       1.51220381
Lu       0.00000000       0.00000000       3.88363636       0.00000000       0.00000000      -1.51220381
2
Properties=species:S:1:pos:R:3:forces:R:3 energy=-68.33097834154803 pbc="F F F"
Lu       0.00000000       0.00000000       0.00000000       0.00000000       0.00000000       1.28962111
Lu       0.00000000       0.00000000       3.94242424       0.00000000       0.00000000      -1.28962111
2
Properties=species:S:1:pos:R:3:forces:R:3 energy=-68.26152914831735 pbc="F F F"
Lu       0.00000000       0.00000000       0.00000000       0.00000000       0.00000000       1.07674682
Lu       0.00000000       0.00000000       4.00121212       0.00000000       0.00000000      -1.07674682
2
Properties=species:S:1:pos:R:3:forces:R:3 energy=-68.20377048545842 pbc="F F F"
Lu       0.00000000       0.00000000       0.00000000       0.00000000       0.00000000       0.89470541
Lu       0.00000000       0.00000000       4.06000000       0.00000000       0.00000000      -0.89470541
2
Properties=species:S:1:pos:R:3:forces:R:3 energy=-68.15548189188387 pbc="F F F"
Lu       0.00000000       0.00000000       0.00000000       0.00000000       0.00000000       0.75613338
Lu       0.00000000       0.00000000       4.11878788       0.00000000       0.00000000      -0.75613338
2
Properties=species:S:1:pos:R:3:forces:R:3 energy=-68.11393936646729 pbc="F F F"
Lu       0.00000000       0.00000000       0.00000000       0.00000000       0.00000000       0.66481286
Lu       0.00000000       0.00000000       4.17757576       0.00000000       0.00000000      -0.66481286
2
Properties=species:S:1:pos:R:3:forces:R:3 energy=-68.07644942407653 pbc="F F F"
Lu       0.00000000       0.00000000       0.00000000       0.00000000       0.00000000       0.61751479
Lu       0.00000000       0.00000000       4.23636364       0.00000000       0.00000000      -0.61751479
2
Properties=species:S:1:pos:R:3:forces:R:3 energy=-68.0406237395215 pbc="F F F"
Lu       0.00000000       0.00000000       0.00000000       0.00000000       0.00000000       0.60640550
Lu       0.00000000       0.00000000       4.29515152       0.00000000       0.00000000      -0.60640550
2
Properties=species:S:1:pos:R:3:forces:R:3 energy=-68.00463858023049 pbc="F F F"
Lu       0.00000000       0.00000000       0.00000000       0.00000000       0.00000000       0.62111616
Lu       0.00000000       0.00000000       4.35393939       0.00000000       0.00000000      -0.62111616
2
Properties=species:S:1:pos:R:3:forces:R:3 energy=-67.96731106376548 pbc="F F F"
Lu       0.00000000       0.00000000       0.00000000       0.00000000       0.00000000       0.65018570
Lu       0.00000000       0.00000000       4.41272727       0.00000000       0.00000000      -0.65018570
2
Properties=species:S:1:pos:R:3:forces:R:3 energy=-67.92813733964084 pbc="F F F"
Lu       0.00000000       0.00000000       0.00000000       0.00000000       0.00000000       0.68204689
Lu       0.00000000       0.00000000       4.47151515       0.00000000       0.00000000      -0.68204689
2
Properties=species:S:1:pos:R:3:forces:R:3 energy=-67.88727731786298 pbc="F F F"
Lu       0.00000000       0.00000000       0.00000000       0.00000000       0.00000000       0.70593870
Lu       0.00000000       0.00000000       4.53030303       0.00000000       0.00000000      -0.70593870
2
Properties=species:S:1:pos:R:3:forces:R:3 energy=-67.8454707455905 pbc="F F F"
Lu       0.00000000       0.00000000       0.00000000       0.00000000       0.00000000       0.71294588
Lu       0.00000000       0.00000000       4.58909091       0.00000000       0.00000000      -0.71294588
2
Properties=species:S:1:pos:R:3:forces:R:3 energy=-67.8038998875361 pbc="F F F"
Lu       0.00000000       0.00000000       0.00000000       0.00000000       0.00000000       0.69721770
Lu       0.00000000       0.00000000       4.64787879       0.00000000       0.00000000      -0.69721770
2
Properties=species:S:1:pos:R:3:forces:R:3 energy=-67.76398353548208 pbc="F F F"
Lu       0.00000000       0.00000000       0.00000000       0.00000000       0.00000000       0.65695238
Lu       0.00000000       0.00000000       4.70666667       0.00000000       0.00000000      -0.65695238
2
Properties=species:S:1:pos:R:3:forces:R:3 energy=-67.72709471434699 pbc="F F F"
Lu       0.00000000       0.00000000       0.00000000       0.00000000       0.00000000       0.59481126
Lu       0.00000000       0.00000000       4.76545455       0.00000000       0.00000000      -0.59481126
2
Properties=species:S:1:pos:R:3:forces:R:3 energy=-67.69434707497793 pbc="F F F"
Lu       0.00000000       0.00000000       0.00000000       0.00000000       0.00000000       0.51722556
Lu       0.00000000       0.00000000       4.82424242       0.00000000       0.00000000      -0.51722556
2
Properties=species:S:1:pos:R:3:forces:R:3 energy=-67.66641179501735 pbc="F F F"
Lu       0.00000000       0.00000000       0.00000000       0.00000000       0.00000000       0.43277505
Lu       0.00000000       0.00000000       4.88303030       0.00000000       0.00000000      -0.43277505
2
Properties=species:S:1:pos:R:3:forces:R:3 energy=-67.64343363655641 pbc="F F F"
Lu       0.00000000       0.00000000       0.00000000       0.00000000       0.00000000       0.34999317
Lu       0.00000000       0.00000000       4.94181818       0.00000000       0.00000000      -0.34999317
2
Properties=species:S:1:pos:R:3:forces:R:3 energy=-67.62509200029803 pbc="F F F"
Lu       0.00000000       0.00000000       0.00000000       0.00000000       0.00000000       0.27569145
Lu       0.00000000       0.00000000       5.00060606       0.00000000       0.00000000      -0.27569145
2
Properties=species:S:1:pos:R:3:forces:R:3 energy=-67.61076878807576 pbc="F F F"
Lu       0.00000000       0.00000000       0.00000000       0.00000000       0.00000000       0.21399415
Lu       0.00000000       0.00000000       5.05939394       0.00000000       0.00000000      -0.21399415
2
Properties=species:S:1:pos:R:3:forces:R:3 energy=-67.59965519537026 pbc="F F F"
Lu       0.00000000       0.00000000       0.00000000       0.00000000       0.00000000       0.16659214
Lu       0.00000000       0.00000000       5.11818182       0.00000000       0.00000000      -0.16659214
2
Properties=species:S:1:pos:R:3:forces:R:3 energy=-67.59089668247671 pbc="F F F"
Lu       0.00000000       0.00000000       0.00000000       0.00000000       0.00000000       0.13354646
Lu       0.00000000       0.00000000       5.17696970       0.00000000       0.00000000      -0.13354646
2
Properties=species:S:1:pos:R:3:forces:R:3 energy=-67.58368454149435 pbc="F F F"
Lu       0.00000000       0.00000000       0.00000000       0.00000000       0.00000000       0.11415271
Lu       0.00000000       0.00000000       5.23575758       0.00000000       0.00000000      -0.11415271
2
Properties=species:S:1:pos:R:3:forces:R:3 energy=-67.5772406169466 pbc="F F F"
Lu       0.00000000       0.00000000       0.00000000       0.00000000       0.00000000       0.10686103
Lu       0.00000000       0.00000000       5.29454545       0.00000000       0.00000000      -0.10686103
2
Properties=species:S:1:pos:R:3:forces:R:3 energy=-67.57094703083061 pbc="F F F"
Lu       0.00000000       0.00000000       0.00000000       0.00000000       0.00000000       0.10806121
Lu       0.00000000       0.00000000       5.35333333       0.00000000       0.00000000      -0.10806121
2
Properties=species:S:1:pos:R:3:forces:R:3 energy=-67.5644987673402 pbc="F F F"
Lu       0.00000000       0.00000000       0.00000000       0.00000000       0.00000000       0.11095232
Lu       0.00000000       0.00000000       5.41212121       0.00000000       0.00000000      -0.11095232
2
Properties=species:S:1:pos:R:3:forces:R:3 energy=-67.55801047488565 pbc="F F F"
Lu       0.00000000       0.00000000       0.00000000       0.00000000       0.00000000       0.10877633
Lu       0.00000000       0.00000000       5.47090909       0.00000000       0.00000000      -0.10877633
2
Properties=species:S:1:pos:R:3:forces:R:3 energy=-67.5517570825189 pbc="F F F"
Lu       0.00000000       0.00000000       0.00000000       0.00000000       0.00000000       0.10446857
Lu       0.00000000       0.00000000       5.52969697       0.00000000       0.00000000      -0.10446857
2
Properties=species:S:1:pos:R:3:forces:R:3 energy=-67.54569314174236 pbc="F F F"
Lu       0.00000000       0.00000000       0.00000000       0.00000000       0.00000000       0.10128818
Lu       0.00000000       0.00000000       5.58848485       0.00000000       0.00000000      -0.10128818
2
Properties=species:S:1:pos:R:3:forces:R:3 energy=-67.53998688412608 pbc="F F F"
Lu       0.00000000       0.00000000       0.00000000       0.00000000       0.00000000       0.09149901
Lu       0.00000000       0.00000000       5.64727273       0.00000000       0.00000000      -0.09149901
2
Properties=species:S:1:pos:R:3:forces:R:3 energy=-67.5350431047397 pbc="F F F"
Lu       0.00000000       0.00000000       0.00000000       0.00000000       0.00000000       0.07691459
Lu       0.00000000       0.00000000       5.70606061       0.00000000       0.00000000      -0.07691459
2
Properties=species:S:1:pos:R:3:forces:R:3 energy=-67.53074023378662 pbc="F F F"
Lu       0.00000000       0.00000000       0.00000000       0.00000000       0.00000000       0.07160786
Lu       0.00000000       0.00000000       5.76484848       0.00000000       0.00000000      -0.07160786
2
Properties=species:S:1:pos:R:3:forces:R:3 energy=-67.52644558272178 pbc="F F F"
Lu       0.00000000       0.00000000       0.00000000       0.00000000       0.00000000       0.07353342
Lu       0.00000000       0.00000000       5.82363636       0.00000000       0.00000000      -0.07353342
2
Properties=species:S:1:pos:R:3:forces:R:3 energy=-67.52256410658981 pbc="F F F"
Lu       0.00000000       0.00000000       0.00000000       0.00000000       0.00000000       0.05437197
Lu       0.00000000       0.00000000       5.88242424       0.00000000       0.00000000      -0.05437197
2
Properties=species:S:1:pos:R:3:forces:R:3 energy=-67.5203553001402 pbc="F F F"
Lu       0.00000000       0.00000000       0.00000000       0.00000000       0.00000000       0.02105245
Lu       0.00000000       0.00000000       5.94121212       0.00000000       0.00000000      -0.02105245
2
Properties=species:S:1:pos:R:3:forces:R:3 energy=-67.51970540512063 pbc="F F F"
Lu       0.00000000       0.00000000       0.00000000       0.00000000       0.00000000       0.00590325
Lu       0.00000000       0.00000000       6.00000000       0.00000000       0.00000000      -0.00590325
