2
Properties=species:S:1:pos:R:3:forces:R:3 energy=-196628.44585032453 pbc="F F F"
Mn       0.00000000       0.00000000       0.00000000       0.00000000       0.00000000   40794.98437500
Mn       0.00000000       0.00000000       0.18000000       0.00000000       0.00000000  -40794.98437500
2
Properties=species:S:1:pos:R:3:forces:R:3 energy=-189239.38335032453 pbc="F F F"
Mn       0.00000000       0.00000000       0.00000000       0.00000000       0.00000000  219567.04687500
Mn       0.00000000       0.00000000       0.23878788       0.00000000       0.00000000 -219567.04687500
2
Properties=species:S:1:pos:R:3:forces:R:3 energy=-169465.25835032453 pbc="F F F"
Mn       0.00000000       0.00000000       0.00000000       0.00000000       0.00000000  463311.71875000
Mn       0.00000000       0.00000000       0.29757576       0.00000000       0.00000000 -463311.71875000
2
Properties=species:S:1:pos:R:3:forces:R:3 energy=-134369.05522532374 pbc="F F F"
Mn       0.00000000       0.00000000       0.00000000       0.00000000       0.00000000  723467.00000000
Mn       0.00000000       0.00000000       0.35636364       0.00000000       0.00000000 -723467.00000000
2
Properties=species:S:1:pos:R:3:forces:R:3 energy=-87042.19585032374 pbc="F F F"
Mn       0.00000000       0.00000000       0.00000000       0.00000000       0.00000000  848476.06250000
Mn       0.00000000       0.00000000       0.41515152       0.00000000       0.00000000 -848476.06250000
2
Properties=species:S:1:pos:R:3:forces:R:3 energy=-39679.094287822954 pbc="F F F"
Mn       0.00000000       0.00000000       0.00000000       0.00000000       0.00000000  757634.31250000
Mn       0.00000000       0.00000000       0.47393939       0.00000000       0.00000000 -757634.31250000
2
Properties=species:S:1:pos:R:3:forces:R:3 energy=-7506.297901102619 pbc="F F F"
Mn       0.00000000       0.00000000       0.00000000       0.00000000       0.00000000  326993.56250000
Mn       0.00000000       0.00000000       0.53272727       0.00000000       0.00000000 -326993.56250000
2
Properties=species:S:1:pos:R:3:forces:R:3 energy=1221.938549096653 pbc="F F F"
Mn       0.00000000       0.00000000       0.00000000       0.00000000       0.00000000  -18475.20898438
Mn       0.00000000       0.00000000       0.59151515       0.00000000       0.00000000   18475.20898438
2
Properties=species:S:1:pos:R:3:forces:R:3 energy=866.291149199061 pbc="F F F"
Mn       0.00000000       0.00000000       0.00000000       0.00000000       0.00000000   11309.80371094
Mn       0.00000000       0.00000000       0.65030303       0.00000000       0.00000000  -11309.80371094
2
Properties=species:S:1:pos:R:3:forces:R:3 energy=1484.3462639522825 pbc="F F F"
Mn       0.00000000       0.00000000       0.00000000       0.00000000       0.00000000   10504.68652344
Mn       0.00000000       0.00000000       0.70909091       0.00000000       0.00000000  -10504.68652344
2
Properties=species:S:1:pos:R:3:forces:R:3 energy=1283.652294237599 pbc="F F F"
Mn       0.00000000       0.00000000       0.00000000       0.00000000       0.00000000   -7944.75830078
Mn       0.00000000       0.00000000       0.76787879       0.00000000       0.00000000    7944.75830078
2
Properties=species:S:1:pos:R:3:forces:R:3 energy=872.4237786300222 pbc="F F F"
Mn       0.00000000       0.00000000       0.00000000       0.00000000       0.00000000   -6021.06591797
Mn       0.00000000       0.00000000       0.82666667       0.00000000       0.00000000    6021.06591797
2
Properties=species:S:1:pos:R:3:forces:R:3 energy=552.1344720147398 pbc="F F F"
Mn       0.00000000       0.00000000       0.00000000       0.00000000       0.00000000   -4895.28271484
Mn       0.00000000       0.00000000       0.88545455       0.00000000       0.00000000    4895.28271484
2
Properties=species:S:1:pos:R:3:forces:R:3 energy=318.04655090621577 pbc="F F F"
Mn       0.00000000       0.00000000       0.00000000       0.00000000       0.00000000   -3210.00268555
Mn       0.00000000       0.00000000       0.94424242       0.00000000       0.00000000    3210.00268555
2
Properties=species:S:1:pos:R:3:forces:R:3 energy=168.32654973223802 pbc="F F F"
Mn       0.00000000       0.00000000       0.00000000       0.00000000       0.00000000   -1934.07275391
Mn       0.00000000       0.00000000       1.00303030       0.00000000       0.00000000    1934.07275391
2
Properties=species:S:1:pos:R:3:forces:R:3 energy=77.84130504540984 pbc="F F F"
Mn       0.00000000       0.00000000       0.00000000       0.00000000       0.00000000   -1182.64550781
Mn       0.00000000       0.00000000       1.06181818       0.00000000       0.00000000    1182.64550781
2
Properties=species:S:1:pos:R:3:forces:R:3 energy=22.94353138668135 pbc="F F F"
Mn       0.00000000       0.00000000       0.00000000       0.00000000       0.00000000    -602.84088135
Mn       0.00000000       0.00000000       1.12060606       0.00000000       0.00000000     602.84088135
2
Properties=species:S:1:pos:R:3:forces:R:3 energy=24.519733889341296 pbc="F F F"
Mn       0.00000000       0.00000000       0.00000000       0.00000000       0.00000000     101.39804840
Mn       0.00000000       0.00000000       1.17939394       0.00000000       0.00000000    -101.39804840
2
Properties=species:S:1:pos:R:3:forces:R:3 energy=30.93668425772337 pbc="F F F"
Mn       0.00000000       0.00000000       0.00000000       0.00000000       0.00000000     116.73341370
Mn       0.00000000       0.00000000       1.23818182       0.00000000       0.00000000    -116.73341370
2
Properties=species:S:1:pos:R:3:forces:R:3 energy=37.90266496649048 pbc="F F F"
Mn       0.00000000       0.00000000       0.00000000       0.00000000       0.00000000      95.27147675
Mn       0.00000000       0.00000000       1.29696970       0.00000000       0.00000000     -95.27147675
2
Properties=species:S:1:pos:R:3:forces:R:3 energy=31.28128534069484 pbc="F F F"
Mn       0.00000000       0.00000000       0.00000000       0.00000000       0.00000000    -142.98558044
Mn       0.00000000       0.00000000       1.35575758       0.00000000       0.00000000     142.98558044
2
Properties=species:S:1:pos:R:3:forces:R:3 energy=22.782101967845854 pbc="F F F"
Mn       0.00000000       0.00000000       0.00000000       0.00000000       0.00000000    -212.23030090
Mn       0.00000000       0.00000000       1.41454545       0.00000000       0.00000000     212.23030090
2
Properties=species:S:1:pos:R:3:forces:R:3 energy=9.180471150171599 pbc="F F F"
Mn       0.00000000       0.00000000       0.00000000       0.00000000       0.00000000    -230.50851440
Mn       0.00000000       0.00000000       1.47333333       0.00000000       0.00000000     230.50851440
2
Properties=species:S:1:pos:R:3:forces:R:3 energy=-2.5672281668488393 pbc="F F F"
Mn       0.00000000       0.00000000       0.00000000       0.00000000       0.00000000    -164.77023315
Mn       0.00000000       0.00000000       1.53212121       0.00000000       0.00000000     164.77023315
2
Properties=species:S:1:pos:R:3:forces:R:3 energy=-11.728993722538812 pbc="F F F"
Mn       0.00000000       0.00000000       0.00000000       0.00000000       0.00000000    -175.59309387
Mn       0.00000000       0.00000000       1.59090909       0.00000000       0.00000000     175.59309387
2
Properties=species:S:1:pos:R:3:forces:R:3 energy=-13.838013391820766 pbc="F F F"
Mn       0.00000000       0.00000000       0.00000000       0.00000000       0.00000000     185.30279541
Mn       0.00000000       0.00000000       1.64969697       0.00000000       0.00000000    -185.30279541
2
Properties=species:S:1:pos:R:3:forces:R:3 energy=-1.6832066702726187 pbc="F F F"
Mn       0.00000000       0.00000000       0.00000000       0.00000000       0.00000000     176.80995178
Mn       0.00000000       0.00000000       1.70848485       0.00000000       0.00000000    -176.80995178
2
Properties=species:S:1:pos:R:3:forces:R:3 energy=3.4733375761879333 pbc="F F F"
Mn       0.00000000       0.00000000       0.00000000       0.00000000       0.00000000     -10.40183353
Mn       0.00000000       0.00000000       1.76727273       0.00000000       0.00000000      10.40183353
2
Properties=species:S:1:pos:R:3:forces:R:3 energy=-2.322320345315003 pbc="F F F"
Mn       0.00000000       0.00000000       0.00000000       0.00000000       0.00000000    -178.31979370
Mn       0.00000000       0.00000000       1.82606061       0.00000000       0.00000000     178.31979370
2
Properties=species:S:1:pos:R:3:forces:R:3 energy=-16.18054959741076 pbc="F F F"
Mn       0.00000000       0.00000000       0.00000000       0.00000000       0.00000000    -255.76002502
Mn       0.00000000       0.00000000       1.88484848       0.00000000       0.00000000     255.76002502
2
Properties=species:S:1:pos:R:3:forces:R:3 energy=-21.41683221894853 pbc="F F F"
Mn       0.00000000       0.00000000       0.00000000       0.00000000       0.00000000      31.97692299
Mn       0.00000000       0.00000000       1.94363636       0.00000000       0.00000000     -31.97692299
2
Properties=species:S:1:pos:R:3:forces:R:3 energy=-20.45455533872081 pbc="F F F"
Mn       0.00000000       0.00000000       0.00000000       0.00000000       0.00000000       1.59019661
Mn       0.00000000       0.00000000       2.00242424       0.00000000       0.00000000      -1.59019661
2
Properties=species:S:1:pos:R:3:forces:R:3 energy=-20.877126091397596 pbc="F F F"
Mn       0.00000000       0.00000000       0.00000000       0.00000000       0.00000000     -14.18338203
Mn       0.00000000       0.00000000       2.06121212       0.00000000       0.00000000      14.18338203
2
Properties=species:S:1:pos:R:3:forces:R:3 energy=-21.894418253137975 pbc="F F F"
Mn       0.00000000       0.00000000       0.00000000       0.00000000       0.00000000     -18.57951927
Mn       0.00000000       0.00000000       2.12000000       0.00000000       0.00000000      18.57951927
2
Properties=species:S:1:pos:R:3:forces:R:3 energy=-22.88316528103642 pbc="F F F"
Mn       0.00000000       0.00000000       0.00000000       0.00000000       0.00000000     -13.99185276
Mn       0.00000000       0.00000000       2.17878788       0.00000000       0.00000000      13.99185276
2
Properties=species:S:1:pos:R:3:forces:R:3 energy=-23.501027672376008 pbc="F F F"
Mn       0.00000000       0.00000000       0.00000000       0.00000000       0.00000000      -7.38407087
Mn       0.00000000       0.00000000       2.23757576       0.00000000       0.00000000       7.38407087
2
Properties=species:S:1:pos:R:3:forces:R:3 energy=-23.8120166979125 pbc="F F F"
Mn       0.00000000       0.00000000       0.00000000       0.00000000       0.00000000      -3.55528784
Mn       0.00000000       0.00000000       2.29636364       0.00000000       0.00000000       3.55528784
2
Properties=species:S:1:pos:R:3:forces:R:3 energy=-23.944053849125105 pbc="F F F"
Mn       0.00000000       0.00000000       0.00000000       0.00000000       0.00000000      -1.21397030
Mn       0.00000000       0.00000000       2.35515152       0.00000000       0.00000000       1.21397030
2
Properties=species:S:1:pos:R:3:forces:R:3 energy=-23.99490542161442 pbc="F F F"
Mn       0.00000000       0.00000000       0.00000000       0.00000000       0.00000000      -0.65126652
Mn       0.00000000       0.00000000       2.41393939       0.00000000       0.00000000       0.65126652
2
Properties=species:S:1:pos:R:3:forces:R:3 energy=-23.997533498611197 pbc="F F F"
Mn       0.00000000       0.00000000       0.00000000       0.00000000       0.00000000       0.81910080
Mn       0.00000000       0.00000000       2.47272727       0.00000000       0.00000000      -0.81910080
2
Properties=species:S:1:pos:R:3:forces:R:3 energy=-23.902490176453966 pbc="F F F"
Mn       0.00000000       0.00000000       0.00000000       0.00000000       0.00000000       2.12268400
Mn       0.00000000       0.00000000       2.53151515       0.00000000       0.00000000      -2.12268400
2
Properties=species:S:1:pos:R:3:forces:R:3 energy=-23.78560986944125 pbc="F F F"
Mn       0.00000000       0.00000000       0.00000000       0.00000000       0.00000000       1.61613739
Mn       0.00000000       0.00000000       2.59030303       0.00000000       0.00000000      -1.61613739
2
Properties=species:S:1:pos:R:3:forces:R:3 energy=-23.72599159138507 pbc="F F F"
Mn       0.00000000       0.00000000       0.00000000       0.00000000       0.00000000       0.39878607
Mn       0.00000000       0.00000000       2.64909091       0.00000000       0.00000000      -0.39878607
2
Properties=species:S:1:pos:R:3:forces:R:3 energy=-23.733408276111263 pbc="F F F"
Mn       0.00000000       0.00000000       0.00000000       0.00000000       0.00000000      -0.57313085
Mn       0.00000000       0.00000000       2.70787879       0.00000000       0.00000000       0.57313085
2
Properties=species:S:1:pos:R:3:forces:R:3 energy=-23.78361875115479 pbc="F F F"
Mn       0.00000000       0.00000000       0.00000000       0.00000000       0.00000000      -1.05751002
Mn       0.00000000       0.00000000       2.76666667       0.00000000       0.00000000       1.05751002
2
Properties=species:S:1:pos:R:3:forces:R:3 energy=-23.85003304560082 pbc="F F F"
Mn       0.00000000       0.00000000       0.00000000       0.00000000       0.00000000      -1.14878559
Mn       0.00000000       0.00000000       2.82545455       0.00000000       0.00000000       1.14878559
2
Properties=species:S:1:pos:R:3:forces:R:3 energy=-23.91374312174127 pbc="F F F"
Mn       0.00000000       0.00000000       0.00000000       0.00000000       0.00000000      -0.98656183
Mn       0.00000000       0.00000000       2.88424242       0.00000000       0.00000000       0.98656183
2
Properties=species:S:1:pos:R:3:forces:R:3 energy=-23.963265992253614 pbc="F F F"
Mn       0.00000000       0.00000000       0.00000000       0.00000000       0.00000000      -0.68261039
Mn       0.00000000       0.00000000       2.94303030       0.00000000       0.00000000       0.68261039
2
Properties=species:S:1:pos:R:3:forces:R:3 energy=-23.992987178040444 pbc="F F F"
Mn       0.00000000       0.00000000       0.00000000       0.00000000       0.00000000      -0.32636201
Mn       0.00000000       0.00000000       3.00181818       0.00000000       0.00000000       0.32636201
2
Properties=species:S:1:pos:R:3:forces:R:3 energy=-24.00204892238601 pbc="F F F"
Mn       0.00000000       0.00000000       0.00000000       0.00000000       0.00000000       0.00947932
Mn       0.00000000       0.00000000       3.06060606       0.00000000       0.00000000      -0.00947932
2
Properties=species:S:1:pos:R:3:forces:R:3 energy=-23.993378926536653 pbc="F F F"
Mn       0.00000000       0.00000000       0.00000000       0.00000000       0.00000000       0.26927257
Mn       0.00000000       0.00000000       3.11939394       0.00000000       0.00000000      -0.26927257
2
Properties=species:S:1:pos:R:3:forces:R:3 energy=-23.972491030319805 pbc="F F F"
Mn       0.00000000       0.00000000       0.00000000       0.00000000       0.00000000       0.42298949
Mn       0.00000000       0.00000000       3.17818182       0.00000000       0.00000000      -0.42298949
2
Properties=species:S:1:pos:R:3:forces:R:3 energy=-23.945669652553427 pbc="F F F"
Mn       0.00000000       0.00000000       0.00000000       0.00000000       0.00000000       0.47448274
Mn       0.00000000       0.00000000       3.23696970       0.00000000       0.00000000      -0.47448274
2
Properties=species:S:1:pos:R:3:forces:R:3 energy=-23.91811273007881 pbc="F F F"
Mn       0.00000000       0.00000000       0.00000000       0.00000000       0.00000000       0.45421848
Mn       0.00000000       0.00000000       3.29575758       0.00000000       0.00000000      -0.45421848
2
Properties=species:S:1:pos:R:3:forces:R:3 energy=-23.892919522274504 pbc="F F F"
Mn       0.00000000       0.00000000       0.00000000       0.00000000       0.00000000       0.40017733
Mn       0.00000000       0.00000000       3.35454545       0.00000000       0.00000000      -0.40017733
2
Properties=species:S:1:pos:R:3:forces:R:3 energy=-23.871121637069884 pbc="F F F"
Mn       0.00000000       0.00000000       0.00000000       0.00000000       0.00000000       0.34263453
Mn       0.00000000       0.00000000       3.41333333       0.00000000       0.00000000      -0.34263453
2
Properties=species:S:1:pos:R:3:forces:R:3 energy=-23.852350528522827 pbc="F F F"
Mn       0.00000000       0.00000000       0.00000000       0.00000000       0.00000000       0.29912937
Mn       0.00000000       0.00000000       3.47212121       0.00000000       0.00000000      -0.29912937
2
Properties=species:S:1:pos:R:3:forces:R:3 energy=-23.83554908199566 pbc="F F F"
Mn       0.00000000       0.00000000       0.00000000       0.00000000       0.00000000       0.27594936
Mn       0.00000000       0.00000000       3.53090909       0.00000000       0.00000000      -0.27594936
2
Properties=species:S:1:pos:R:3:forces:R:3 energy=-23.81953233030368 pbc="F F F"
Mn       0.00000000       0.00000000       0.00000000       0.00000000       0.00000000       0.27164721
Mn       0.00000000       0.00000000       3.58969697       0.00000000       0.00000000      -0.27164721
2
Properties=species:S:1:pos:R:3:forces:R:3 energy=-23.80334991014403 pbc="F F F"
Mn       0.00000000       0.00000000       0.00000000       0.00000000       0.00000000       0.28056273
Mn       0.00000000       0.00000000       3.64848485       0.00000000       0.00000000      -0.28056273
2
Properties=species:S:1:pos:R:3:forces:R:3 energy=-23.786423441882395 pbc="F F F"
Mn       0.00000000       0.00000000       0.00000000       0.00000000       0.00000000       0.29572240
Mn       0.00000000       0.00000000       3.70727273       0.00000000       0.00000000      -0.29572240
2
Properties=species:S:1:pos:R:3:forces:R:3 energy=-23.76857880559214 pbc="F F F"
Mn       0.00000000       0.00000000       0.00000000       0.00000000       0.00000000       0.31096628
Mn       0.00000000       0.00000000       3.76606061       0.00000000       0.00000000      -0.31096628
2
Properties=species:S:1:pos:R:3:forces:R:3 energy=-23.749941398438413 pbc="F F F"
Mn       0.00000000       0.00000000       0.00000000       0.00000000       0.00000000       0.32224193
Mn       0.00000000       0.00000000       3.82484848       0.00000000       0.00000000      -0.32224193
2
Properties=species:S:1:pos:R:3:forces:R:3 energy=-23.730798745387986 pbc="F F F"
Mn       0.00000000       0.00000000       0.00000000       0.00000000       0.00000000       0.32805723
Mn       0.00000000       0.00000000       3.88363636       0.00000000       0.00000000      -0.32805723
2
Properties=species:S:1:pos:R:3:forces:R:3 energy=-23.711463170107674 pbc="F F F"
Mn       0.00000000       0.00000000       0.00000000       0.00000000       0.00000000       0.32914141
Mn       0.00000000       0.00000000       3.94242424       0.00000000       0.00000000      -0.32914141
2
Properties=species:S:1:pos:R:3:forces:R:3 energy=-23.692153572611236 pbc="F F F"
Mn       0.00000000       0.00000000       0.00000000       0.00000000       0.00000000       0.32756755
Mn       0.00000000       0.00000000       4.00121212       0.00000000       0.00000000      -0.32756755
2
Properties=species:S:1:pos:R:3:forces:R:3 energy=-23.67295535434725 pbc="F F F"
Mn       0.00000000       0.00000000       0.00000000       0.00000000       0.00000000       0.32570943
Mn       0.00000000       0.00000000       4.06000000       0.00000000       0.00000000      -0.32570943
2
Properties=species:S:1:pos:R:3:forces:R:3 energy=-23.653826152916285 pbc="F F F"
Mn       0.00000000       0.00000000       0.00000000       0.00000000       0.00000000       0.32539380
Mn       0.00000000       0.00000000       4.11878788       0.00000000       0.00000000      -0.32539380
2
Properties=species:S:1:pos:R:3:forces:R:3 energy=-23.6346492985178 pbc="F F F"
Mn       0.00000000       0.00000000       0.00000000       0.00000000       0.00000000       0.32744163
Mn       0.00000000       0.00000000       4.17757576       0.00000000       0.00000000      -0.32744163
2
Properties=species:S:1:pos:R:3:forces:R:3 energy=-23.61528524742285 pbc="F F F"
Mn       0.00000000       0.00000000       0.00000000       0.00000000       0.00000000       0.33164242
Mn       0.00000000       0.00000000       4.23636364       0.00000000       0.00000000      -0.33164242
2
Properties=species:S:1:pos:R:3:forces:R:3 energy=-23.595632688406347 pbc="F F F"
Mn       0.00000000       0.00000000       0.00000000       0.00000000       0.00000000       0.33703431
Mn       0.00000000       0.00000000       4.29515152       0.00000000       0.00000000      -0.33703431
2
Properties=species:S:1:pos:R:3:forces:R:3 energy=-23.575660910653006 pbc="F F F"
Mn       0.00000000       0.00000000       0.00000000       0.00000000       0.00000000       0.34232822
Mn       0.00000000       0.00000000       4.35393939       0.00000000       0.00000000      -0.34232822
2
Properties=species:S:1:pos:R:3:forces:R:3 energy=-23.55540796610083 pbc="F F F"
Mn       0.00000000       0.00000000       0.00000000       0.00000000       0.00000000       0.34632078
Mn       0.00000000       0.00000000       4.41272727       0.00000000       0.00000000      -0.34632078
2
Properties=species:S:1:pos:R:3:forces:R:3 energy=-23.534982572037972 pbc="F F F"
Mn       0.00000000       0.00000000       0.00000000       0.00000000       0.00000000       0.34819672
Mn       0.00000000       0.00000000       4.47151515       0.00000000       0.00000000      -0.34819672
2
Properties=species:S:1:pos:R:3:forces:R:3 energy=-23.514516397292628 pbc="F F F"
Mn       0.00000000       0.00000000       0.00000000       0.00000000       0.00000000       0.34765792
Mn       0.00000000       0.00000000       4.53030303       0.00000000       0.00000000      -0.34765792
2
Properties=species:S:1:pos:R:3:forces:R:3 energy=-23.494150745638645 pbc="F F F"
Mn       0.00000000       0.00000000       0.00000000       0.00000000       0.00000000       0.34484702
Mn       0.00000000       0.00000000       4.58909091       0.00000000       0.00000000      -0.34484702
2
Properties=species:S:1:pos:R:3:forces:R:3 energy=-23.474009867169862 pbc="F F F"
Mn       0.00000000       0.00000000       0.00000000       0.00000000       0.00000000       0.34013790
Mn       0.00000000       0.00000000       4.64787879       0.00000000       0.00000000      -0.34013790
2
Properties=species:S:1:pos:R:3:forces:R:3 energy=-23.454189495201376 pbc="F F F"
Mn       0.00000000       0.00000000       0.00000000       0.00000000       0.00000000       0.33383861
Mn       0.00000000       0.00000000       4.70666667       0.00000000       0.00000000      -0.33383861
2
Properties=species:S:1:pos:R:3:forces:R:3 energy=-23.43478736859941 pbc="F F F"
Mn       0.00000000       0.00000000       0.00000000       0.00000000       0.00000000       0.32598400
Mn       0.00000000       0.00000000       4.76545455       0.00000000       0.00000000      -0.32598400
2
Properties=species:S:1:pos:R:3:forces:R:3 energy=-23.415897522406684 pbc="F F F"
Mn       0.00000000       0.00000000       0.00000000       0.00000000       0.00000000       0.31627062
Mn       0.00000000       0.00000000       4.82424242       0.00000000       0.00000000      -0.31627062
2
Properties=species:S:1:pos:R:3:forces:R:3 energy=-23.39765037225804 pbc="F F F"
Mn       0.00000000       0.00000000       0.00000000       0.00000000       0.00000000       0.30417144
Mn       0.00000000       0.00000000       4.88303030       0.00000000       0.00000000      -0.30417144
2
Properties=species:S:1:pos:R:3:forces:R:3 energy=-23.38019352210076 pbc="F F F"
Mn       0.00000000       0.00000000       0.00000000       0.00000000       0.00000000       0.28913161
Mn       0.00000000       0.00000000       4.94181818       0.00000000       0.00000000      -0.28913161
2
Properties=species:S:1:pos:R:3:forces:R:3 energy=-23.36371860012398 pbc="F F F"
Mn       0.00000000       0.00000000       0.00000000       0.00000000       0.00000000       0.27081907
Mn       0.00000000       0.00000000       5.00060606       0.00000000       0.00000000      -0.27081907
2
Properties=species:S:1:pos:R:3:forces:R:3 energy=-23.348413510102485 pbc="F F F"
Mn       0.00000000       0.00000000       0.00000000       0.00000000       0.00000000       0.24934047
Mn       0.00000000       0.00000000       5.05939394       0.00000000       0.00000000      -0.24934047
2
Properties=species:S:1:pos:R:3:forces:R:3 energy=-23.33444904352635 pbc="F F F"
Mn       0.00000000       0.00000000       0.00000000       0.00000000       0.00000000       0.22547615
Mn       0.00000000       0.00000000       5.11818182       0.00000000       0.00000000      -0.22547615
2
Properties=species:S:1:pos:R:3:forces:R:3 energy=-23.321917869787256 pbc="F F F"
Mn       0.00000000       0.00000000       0.00000000       0.00000000       0.00000000       0.20091963
Mn       0.00000000       0.00000000       5.17696970       0.00000000       0.00000000      -0.20091963
2
Properties=species:S:1:pos:R:3:forces:R:3 energy=-23.310788747140023 pbc="F F F"
Mn       0.00000000       0.00000000       0.00000000       0.00000000       0.00000000       0.17828386
Mn       0.00000000       0.00000000       5.23575758       0.00000000       0.00000000      -0.17828386
2
Properties=species:S:1:pos:R:3:forces:R:3 energy=-23.30086262675755 pbc="F F F"
Mn       0.00000000       0.00000000       0.00000000       0.00000000       0.00000000       0.16037542
Mn       0.00000000       0.00000000       5.29454545       0.00000000       0.00000000      -0.16037542
2
Properties=species:S:1:pos:R:3:forces:R:3 energy=-23.291822235875728 pbc="F F F"
Mn       0.00000000       0.00000000       0.00000000       0.00000000       0.00000000       0.14781933
Mn       0.00000000       0.00000000       5.35333333       0.00000000       0.00000000      -0.14781933
2
Properties=species:S:1:pos:R:3:forces:R:3 energy=-23.283487629248103 pbc="F F F"
Mn       0.00000000       0.00000000       0.00000000       0.00000000       0.00000000       0.13473389
Mn       0.00000000       0.00000000       5.41212121       0.00000000       0.00000000      -0.13473389
2
Properties=species:S:1:pos:R:3:forces:R:3 energy=-23.276212941420155 pbc="F F F"
Mn       0.00000000       0.00000000       0.00000000       0.00000000       0.00000000       0.11039654
Mn       0.00000000       0.00000000       5.47090909       0.00000000       0.00000000      -0.11039654
2
Properties=species:S:1:pos:R:3:forces:R:3 energy=-23.270607855224213 pbc="F F F"
Mn       0.00000000       0.00000000       0.00000000       0.00000000       0.00000000       0.08184082
Mn       0.00000000       0.00000000       5.52969697       0.00000000       0.00000000      -0.08184082
2
Properties=species:S:1:pos:R:3:forces:R:3 energy=-23.266196759449247 pbc="F F F"
Mn       0.00000000       0.00000000       0.00000000       0.00000000       0.00000000       0.07182133
Mn       0.00000000       0.00000000       5.58848485       0.00000000       0.00000000      -0.07182133
2
Properties=species:S:1:pos:R:3:forces:R:3 energy=-23.261948950579097 pbc="F F F"
Mn       0.00000000       0.00000000       0.00000000       0.00000000       0.00000000       0.07232936
Mn       0.00000000       0.00000000       5.64727273       0.00000000       0.00000000      -0.07232936
2
Properties=species:S:1:pos:R:3:forces:R:3 energy=-23.257989516596563 pbc="F F F"
Mn       0.00000000       0.00000000       0.00000000       0.00000000       0.00000000       0.05862041
Mn       0.00000000       0.00000000       5.70606061       0.00000000       0.00000000      -0.05862041
2
Properties=species:S:1:pos:R:3:forces:R:3 energy=-23.255393359170153 pbc="F F F"
Mn       0.00000000       0.00000000       0.00000000       0.00000000       0.00000000       0.02892477
Mn       0.00000000       0.00000000       5.76484848       0.00000000       0.00000000      -0.02892477
2
Properties=species:S:1:pos:R:3:forces:R:3 energy=-23.254338829492394 pbc="F F F"
Mn       0.00000000       0.00000000       0.00000000       0.00000000       0.00000000       0.01047811
Mn       0.00000000       0.00000000       5.82363636       0.00000000       0.00000000      -0.01047811
2
Properties=species:S:1:pos:R:3:forces:R:3 energy=-23.25384072322987 pbc="F F F"
Mn       0.00000000       0.00000000       0.00000000       0.00000000       0.00000000       0.00772958
Mn       0.00000000       0.00000000       5.88242424       0.00000000       0.00000000      -0.00772958
2
Properties=species:S:1:pos:R:3:forces:R:3 energy=-23.253398221030494 pbc="F F F"
Mn       0.00000000       0.00000000       0.00000000       0.00000000       0.00000000       0.00723268
Mn       0.00000000       0.00000000       5.94121212       0.00000000       0.00000000      -0.00723268
2
Properties=species:S:1:pos:R:3:forces:R:3 energy=-23.252991058779063 pbc="F F F"
Mn       0.00000000       0.00000000       0.00000000       0.00000000       0.00000000       0.00671905
Mn       0.00000000       0.00000000       6.00000000       0.00000000       0.00000000      -0.00671905
