2
Properties=species:S:1:pos:R:3:forces:R:3 energy=1682123.983696629 pbc="F F F"
Mo       0.00000000       0.00000000       0.00000000       0.00000000       0.00000000 -570817.18750000
Mo       0.00000000       0.00000000       0.18000000       0.00000000       0.00000000  570817.18750000
2
Properties=species:S:1:pos:R:3:forces:R:3 energy=1630950.733696629 pbc="F F F"
Mo       0.00000000       0.00000000       0.00000000       0.00000000       0.00000000 -1270420.25000000
Mo       0.00000000       0.00000000       0.23878788       0.00000000       0.00000000 1270420.25000000
2
Properties=species:S:1:pos:R:3:forces:R:3 energy=1521170.358696629 pbc="F F F"
Mo       0.00000000       0.00000000       0.00000000       0.00000000       0.00000000 -2556567.00000000
Mo       0.00000000       0.00000000       0.29757576       0.00000000       0.00000000 2556567.00000000
2
Properties=species:S:1:pos:R:3:forces:R:3 energy=1321365.358696629 pbc="F F F"
Mo       0.00000000       0.00000000       0.00000000       0.00000000       0.00000000 -4280103.50000000
Mo       0.00000000       0.00000000       0.35636364       0.00000000       0.00000000 4280103.50000000
2
Properties=species:S:1:pos:R:3:forces:R:3 energy=1018329.5461966291 pbc="F F F"
Mo       0.00000000       0.00000000       0.00000000       0.00000000       0.00000000 -5956536.50000000
Mo       0.00000000       0.00000000       0.41515152       0.00000000       0.00000000 5956536.50000000
2
Properties=species:S:1:pos:R:3:forces:R:3 energy=647737.1711966291 pbc="F F F"
Mo       0.00000000       0.00000000       0.00000000       0.00000000       0.00000000 -6373826.50000000
Mo       0.00000000       0.00000000       0.47393939       0.00000000       0.00000000 6373826.50000000
2
Properties=species:S:1:pos:R:3:forces:R:3 energy=306038.95244663226 pbc="F F F"
Mo       0.00000000       0.00000000       0.00000000       0.00000000       0.00000000 -4947584.00000000
Mo       0.00000000       0.00000000       0.53272727       0.00000000       0.00000000 4947584.00000000
2
Properties=species:S:1:pos:R:3:forces:R:3 energy=89169.87432163859 pbc="F F F"
Mo       0.00000000       0.00000000       0.00000000       0.00000000       0.00000000 -2408341.25000000
Mo       0.00000000       0.00000000       0.59151515       0.00000000       0.00000000 2408341.25000000
2
Properties=species:S:1:pos:R:3:forces:R:3 energy=12840.454399771508 pbc="F F F"
Mo       0.00000000       0.00000000       0.00000000       0.00000000       0.00000000 -449959.87500000
Mo       0.00000000       0.00000000       0.65030303       0.00000000       0.00000000  449959.87500000
2
Properties=species:S:1:pos:R:3:forces:R:3 energy=4896.466118532596 pbc="F F F"
Mo       0.00000000       0.00000000       0.00000000       0.00000000       0.00000000  126330.29687500
Mo       0.00000000       0.00000000       0.70909091       0.00000000       0.00000000 -126330.29687500
2
Properties=species:S:1:pos:R:3:forces:R:3 energy=7869.800102926602 pbc="F F F"
Mo       0.00000000       0.00000000       0.00000000       0.00000000       0.00000000   -8364.24609375
Mo       0.00000000       0.00000000       0.76787879       0.00000000       0.00000000    8364.24609375
2
Properties=species:S:1:pos:R:3:forces:R:3 energy=4329.739556080113 pbc="F F F"
Mo       0.00000000       0.00000000       0.00000000       0.00000000       0.00000000     310.86871338
Mo       0.00000000       0.00000000       0.82666667       0.00000000       0.00000000    -310.86871338
2
Properties=species:S:1:pos:R:3:forces:R:3 energy=3425.097466274377 pbc="F F F"
Mo       0.00000000       0.00000000       0.00000000       0.00000000       0.00000000  -22768.07226562
Mo       0.00000000       0.00000000       0.88545455       0.00000000       0.00000000   22768.07226562
2
Properties=species:S:1:pos:R:3:forces:R:3 energy=1993.025444843855 pbc="F F F"
Mo       0.00000000       0.00000000       0.00000000       0.00000000       0.00000000  -22891.08398438
Mo       0.00000000       0.00000000       0.94424242       0.00000000       0.00000000   22891.08398438
2
Properties=species:S:1:pos:R:3:forces:R:3 energy=905.5013970683201 pbc="F F F"
Mo       0.00000000       0.00000000       0.00000000       0.00000000       0.00000000  -14093.05566406
Mo       0.00000000       0.00000000       1.00303030       0.00000000       0.00000000   14093.05566406
2
Properties=species:S:1:pos:R:3:forces:R:3 energy=266.10183051771594 pbc="F F F"
Mo       0.00000000       0.00000000       0.00000000       0.00000000       0.00000000   -7943.17382812
Mo       0.00000000       0.00000000       1.06181818       0.00000000       0.00000000    7943.17382812
2
Properties=species:S:1:pos:R:3:forces:R:3 energy=-56.28954966087805 pbc="F F F"
Mo       0.00000000       0.00000000       0.00000000       0.00000000       0.00000000   -3565.45458984
Mo       0.00000000       0.00000000       1.12060606       0.00000000       0.00000000    3565.45458984
2
Properties=species:S:1:pos:R:3:forces:R:3 energy=-104.47307457209705 pbc="F F F"
Mo       0.00000000       0.00000000       0.00000000       0.00000000       0.00000000     319.29293823
Mo       0.00000000       0.00000000       1.17939394       0.00000000       0.00000000    -319.29293823
2
Properties=species:S:1:pos:R:3:forces:R:3 energy=-88.28664246241605 pbc="F F F"
Mo       0.00000000       0.00000000       0.00000000       0.00000000       0.00000000     238.81416321
Mo       0.00000000       0.00000000       1.23818182       0.00000000       0.00000000    -238.81416321
2
Properties=species:S:1:pos:R:3:forces:R:3 energy=-76.3709698782338 pbc="F F F"
Mo       0.00000000       0.00000000       0.00000000       0.00000000       0.00000000     168.59506226
Mo       0.00000000       0.00000000       1.29696970       0.00000000       0.00000000    -168.59506226
2
Properties=species:S:1:pos:R:3:forces:R:3 energy=-68.29089139526988 pbc="F F F"
Mo       0.00000000       0.00000000       0.00000000       0.00000000       0.00000000     110.26165771
Mo       0.00000000       0.00000000       1.35575758       0.00000000       0.00000000    -110.26165771
2
Properties=species:S:1:pos:R:3:forces:R:3 energy=-62.20525099340977 pbc="F F F"
Mo       0.00000000       0.00000000       0.00000000       0.00000000       0.00000000     106.90602875
Mo       0.00000000       0.00000000       1.41454545       0.00000000       0.00000000    -106.90602875
2
Properties=species:S:1:pos:R:3:forces:R:3 energy=-55.992092786816215 pbc="F F F"
Mo       0.00000000       0.00000000       0.00000000       0.00000000       0.00000000      95.63151550
Mo       0.00000000       0.00000000       1.47333333       0.00000000       0.00000000     -95.63151550
2
Properties=species:S:1:pos:R:3:forces:R:3 energy=-51.46140668726541 pbc="F F F"
Mo       0.00000000       0.00000000       0.00000000       0.00000000       0.00000000      58.78129959
Mo       0.00000000       0.00000000       1.53212121       0.00000000       0.00000000     -58.78129959
2
Properties=species:S:1:pos:R:3:forces:R:3 energy=-48.843436350692194 pbc="F F F"
Mo       0.00000000       0.00000000       0.00000000       0.00000000       0.00000000      33.03290176
Mo       0.00000000       0.00000000       1.59090909       0.00000000       0.00000000     -33.03290176
2
Properties=species:S:1:pos:R:3:forces:R:3 energy=-47.24818619264194 pbc="F F F"
Mo       0.00000000       0.00000000       0.00000000       0.00000000       0.00000000      23.89117432
Mo       0.00000000       0.00000000       1.64969697       0.00000000       0.00000000     -23.89117432
2
Properties=species:S:1:pos:R:3:forces:R:3 energy=-45.84395679425942 pbc="F F F"
Mo       0.00000000       0.00000000       0.00000000       0.00000000       0.00000000      23.88386345
Mo       0.00000000       0.00000000       1.70848485       0.00000000       0.00000000     -23.88386345
2
Properties=species:S:1:pos:R:3:forces:R:3 energy=-44.56820617486777 pbc="F F F"
Mo       0.00000000       0.00000000       0.00000000       0.00000000       0.00000000      18.28549194
Mo       0.00000000       0.00000000       1.76727273       0.00000000       0.00000000     -18.28549194
2
Properties=species:S:1:pos:R:3:forces:R:3 energy=-43.75500643483282 pbc="F F F"
Mo       0.00000000       0.00000000       0.00000000       0.00000000       0.00000000       9.52407074
Mo       0.00000000       0.00000000       1.82606061       0.00000000       0.00000000      -9.52407074
2
Properties=species:S:1:pos:R:3:forces:R:3 energy=-43.397662777285575 pbc="F F F"
Mo       0.00000000       0.00000000       0.00000000       0.00000000       0.00000000       3.19218302
Mo       0.00000000       0.00000000       1.88484848       0.00000000       0.00000000      -3.19218302
2
Properties=species:S:1:pos:R:3:forces:R:3 energy=-43.31044142289913 pbc="F F F"
Mo       0.00000000       0.00000000       0.00000000       0.00000000       0.00000000       0.34115431
Mo       0.00000000       0.00000000       1.94363636       0.00000000       0.00000000      -0.34115431
2
Properties=species:S:1:pos:R:3:forces:R:3 energy=-43.30385883996914 pbc="F F F"
Mo       0.00000000       0.00000000       0.00000000       0.00000000       0.00000000       0.19212225
Mo       0.00000000       0.00000000       2.00242424       0.00000000       0.00000000      -0.19212225
2
Properties=species:S:1:pos:R:3:forces:R:3 energy=-43.26980290236678 pbc="F F F"
Mo       0.00000000       0.00000000       0.00000000       0.00000000       0.00000000       0.98403704
Mo       0.00000000       0.00000000       2.06121212       0.00000000       0.00000000      -0.98403704
2
Properties=species:S:1:pos:R:3:forces:R:3 energy=-43.19624248257225 pbc="F F F"
Mo       0.00000000       0.00000000       0.00000000       0.00000000       0.00000000       1.40227377
Mo       0.00000000       0.00000000       2.12000000       0.00000000       0.00000000      -1.40227377
2
Properties=species:S:1:pos:R:3:forces:R:3 energy=-43.11822776983599 pbc="F F F"
Mo       0.00000000       0.00000000       0.00000000       0.00000000       0.00000000       1.16524410
Mo       0.00000000       0.00000000       2.17878788       0.00000000       0.00000000      -1.16524410
2
Properties=species:S:1:pos:R:3:forces:R:3 energy=-43.06435126965607 pbc="F F F"
Mo       0.00000000       0.00000000       0.00000000       0.00000000       0.00000000       0.66840464
Mo       0.00000000       0.00000000       2.23757576       0.00000000       0.00000000      -0.66840464
2
Properties=species:S:1:pos:R:3:forces:R:3 energy=-43.03534754852309 pbc="F F F"
Mo       0.00000000       0.00000000       0.00000000       0.00000000       0.00000000       0.37973142
Mo       0.00000000       0.00000000       2.29636364       0.00000000       0.00000000      -0.37973142
2
Properties=species:S:1:pos:R:3:forces:R:3 energy=-43.01185672256715 pbc="F F F"
Mo       0.00000000       0.00000000       0.00000000       0.00000000       0.00000000       0.47828612
Mo       0.00000000       0.00000000       2.35515152       0.00000000       0.00000000      -0.47828612
2
Properties=species:S:1:pos:R:3:forces:R:3 energy=-42.97480307403453 pbc="F F F"
Mo       0.00000000       0.00000000       0.00000000       0.00000000       0.00000000       0.79385364
Mo       0.00000000       0.00000000       2.41393939       0.00000000       0.00000000      -0.79385364
2
Properties=species:S:1:pos:R:3:forces:R:3 energy=-42.91928522251165 pbc="F F F"
Mo       0.00000000       0.00000000       0.00000000       0.00000000       0.00000000       1.08065641
Mo       0.00000000       0.00000000       2.47272727       0.00000000       0.00000000      -1.08065641
2
Properties=species:S:1:pos:R:3:forces:R:3 energy=-42.848473876428905 pbc="F F F"
Mo       0.00000000       0.00000000       0.00000000       0.00000000       0.00000000       1.33586454
Mo       0.00000000       0.00000000       2.53151515       0.00000000       0.00000000      -1.33586454
2
Properties=species:S:1:pos:R:3:forces:R:3 energy=-42.76015881974091 pbc="F F F"
Mo       0.00000000       0.00000000       0.00000000       0.00000000       0.00000000       1.68782723
Mo       0.00000000       0.00000000       2.59030303       0.00000000       0.00000000      -1.68782723
2
Properties=species:S:1:pos:R:3:forces:R:3 energy=-42.64905096894885 pbc="F F F"
Mo       0.00000000       0.00000000       0.00000000       0.00000000       0.00000000       2.08568382
Mo       0.00000000       0.00000000       2.64909091       0.00000000       0.00000000      -2.08568382
2
Properties=species:S:1:pos:R:3:forces:R:3 energy=-42.51713276027168 pbc="F F F"
Mo       0.00000000       0.00000000       0.00000000       0.00000000       0.00000000       2.37574339
Mo       0.00000000       0.00000000       2.70787879       0.00000000       0.00000000      -2.37574339
2
Properties=species:S:1:pos:R:3:forces:R:3 energy=-42.37309511148388 pbc="F F F"
Mo       0.00000000       0.00000000       0.00000000       0.00000000       0.00000000       2.49455333
Mo       0.00000000       0.00000000       2.76666667       0.00000000       0.00000000      -2.49455333
2
Properties=species:S:1:pos:R:3:forces:R:3 energy=-42.22767069483389 pbc="F F F"
Mo       0.00000000       0.00000000       0.00000000       0.00000000       0.00000000       2.41619587
Mo       0.00000000       0.00000000       2.82545455       0.00000000       0.00000000      -2.41619587
2
Properties=species:S:1:pos:R:3:forces:R:3 energy=-42.09378741134384 pbc="F F F"
Mo       0.00000000       0.00000000       0.00000000       0.00000000       0.00000000       2.09624791
Mo       0.00000000       0.00000000       2.88424242       0.00000000       0.00000000      -2.09624791
2
Properties=species:S:1:pos:R:3:forces:R:3 energy=-41.98576263412779 pbc="F F F"
Mo       0.00000000       0.00000000       0.00000000       0.00000000       0.00000000       1.54753041
Mo       0.00000000       0.00000000       2.94303030       0.00000000       0.00000000      -1.54753041
2
Properties=species:S:1:pos:R:3:forces:R:3 energy=-41.9141171113003 pbc="F F F"
Mo       0.00000000       0.00000000       0.00000000       0.00000000       0.00000000       0.88440973
Mo       0.00000000       0.00000000       3.00181818       0.00000000       0.00000000      -0.88440973
2
Properties=species:S:1:pos:R:3:forces:R:3 energy=-41.88067730538466 pbc="F F F"
Mo       0.00000000       0.00000000       0.00000000       0.00000000       0.00000000       0.27636272
Mo       0.00000000       0.00000000       3.06060606       0.00000000       0.00000000      -0.27636272
2
Properties=species:S:1:pos:R:3:forces:R:3 energy=-41.8777825766461 pbc="F F F"
Mo       0.00000000       0.00000000       0.00000000       0.00000000       0.00000000      -0.14019929
Mo       0.00000000       0.00000000       3.11939394       0.00000000       0.00000000       0.14019929
2
Properties=species:S:1:pos:R:3:forces:R:3 energy=-41.89301170329657 pbc="F F F"
Mo       0.00000000       0.00000000       0.00000000       0.00000000       0.00000000      -0.34905133
Mo       0.00000000       0.00000000       3.17818182       0.00000000       0.00000000       0.34905133
2
Properties=species:S:1:pos:R:3:forces:R:3 energy=-41.91655657646904 pbc="F F F"
Mo       0.00000000       0.00000000       0.00000000       0.00000000       0.00000000      -0.44180167
Mo       0.00000000       0.00000000       3.23696970       0.00000000       0.00000000       0.44180167
2
Properties=species:S:1:pos:R:3:forces:R:3 energy=-41.94437666728203 pbc="F F F"
Mo       0.00000000       0.00000000       0.00000000       0.00000000       0.00000000      -0.50147784
Mo       0.00000000       0.00000000       3.29575758       0.00000000       0.00000000       0.50147784
2
Properties=species:S:1:pos:R:3:forces:R:3 energy=-41.97479677018239 pbc="F F F"
Mo       0.00000000       0.00000000       0.00000000       0.00000000       0.00000000      -0.52237767
Mo       0.00000000       0.00000000       3.35454545       0.00000000       0.00000000       0.52237767
2
Properties=species:S:1:pos:R:3:forces:R:3 energy=-42.003849609822446 pbc="F F F"
Mo       0.00000000       0.00000000       0.00000000       0.00000000       0.00000000      -0.44507423
Mo       0.00000000       0.00000000       3.41333333       0.00000000       0.00000000       0.44507423
2
Properties=species:S:1:pos:R:3:forces:R:3 energy=-42.02451835754113 pbc="F F F"
Mo       0.00000000       0.00000000       0.00000000       0.00000000       0.00000000      -0.23699392
Mo       0.00000000       0.00000000       3.47212121       0.00000000       0.00000000       0.23699392
2
Properties=species:S:1:pos:R:3:forces:R:3 energy=-42.02971575248184 pbc="F F F"
Mo       0.00000000       0.00000000       0.00000000       0.00000000       0.00000000       0.07156771
Mo       0.00000000       0.00000000       3.53090909       0.00000000       0.00000000      -0.07156771
2
Properties=species:S:1:pos:R:3:forces:R:3 energy=-42.01551631910278 pbc="F F F"
Mo       0.00000000       0.00000000       0.00000000       0.00000000       0.00000000       0.41042241
Mo       0.00000000       0.00000000       3.58969697       0.00000000       0.00000000      -0.41042241
2
Properties=species:S:1:pos:R:3:forces:R:3 energy=-41.9821791273645 pbc="F F F"
Mo       0.00000000       0.00000000       0.00000000       0.00000000       0.00000000       0.71375251
Mo       0.00000000       0.00000000       3.64848485       0.00000000       0.00000000      -0.71375251
2
Properties=species:S:1:pos:R:3:forces:R:3 energy=-41.932961551761025 pbc="F F F"
Mo       0.00000000       0.00000000       0.00000000       0.00000000       0.00000000       0.94844580
Mo       0.00000000       0.00000000       3.70727273       0.00000000       0.00000000      -0.94844580
2
Properties=species:S:1:pos:R:3:forces:R:3 energy=-41.872028785540024 pbc="F F F"
Mo       0.00000000       0.00000000       0.00000000       0.00000000       0.00000000       1.11419189
Mo       0.00000000       0.00000000       3.76606061       0.00000000       0.00000000      -1.11419189
2
Properties=species:S:1:pos:R:3:forces:R:3 energy=-41.803004426804286 pbc="F F F"
Mo       0.00000000       0.00000000       0.00000000       0.00000000       0.00000000       1.22656596
Mo       0.00000000       0.00000000       3.82484848       0.00000000       0.00000000      -1.22656596
2
Properties=species:S:1:pos:R:3:forces:R:3 energy=-41.72855067807883 pbc="F F F"
Mo       0.00000000       0.00000000       0.00000000       0.00000000       0.00000000       1.30097497
Mo       0.00000000       0.00000000       3.88363636       0.00000000       0.00000000      -1.30097497
2
Properties=species:S:1:pos:R:3:forces:R:3 energy=-41.65060881479063 pbc="F F F"
Mo       0.00000000       0.00000000       0.00000000       0.00000000       0.00000000       1.34628618
Mo       0.00000000       0.00000000       3.94242424       0.00000000       0.00000000      -1.34628618
2
Properties=species:S:1:pos:R:3:forces:R:3 energy=-41.57076534393703 pbc="F F F"
Mo       0.00000000       0.00000000       0.00000000       0.00000000       0.00000000       1.36594450
Mo       0.00000000       0.00000000       4.00121212       0.00000000       0.00000000      -1.36594450
2
Properties=species:S:1:pos:R:3:forces:R:3 energy=-41.49049230625486 pbc="F F F"
Mo       0.00000000       0.00000000       0.00000000       0.00000000       0.00000000       1.36077178
Mo       0.00000000       0.00000000       4.06000000       0.00000000       0.00000000      -1.36077178
2
Properties=species:S:1:pos:R:3:forces:R:3 energy=-41.411261828012094 pbc="F F F"
Mo       0.00000000       0.00000000       0.00000000       0.00000000       0.00000000       1.33044469
Mo       0.00000000       0.00000000       4.11878788       0.00000000       0.00000000      -1.33044469
2
Properties=species:S:1:pos:R:3:forces:R:3 energy=-41.33457652296058 pbc="F F F"
Mo       0.00000000       0.00000000       0.00000000       0.00000000       0.00000000       1.27387679
Mo       0.00000000       0.00000000       4.17757576       0.00000000       0.00000000      -1.27387679
2
Properties=species:S:1:pos:R:3:forces:R:3 energy=-41.26202297412539 pbc="F F F"
Mo       0.00000000       0.00000000       0.00000000       0.00000000       0.00000000       1.18993616
Mo       0.00000000       0.00000000       4.23636364       0.00000000       0.00000000      -1.18993616
2
Properties=species:S:1:pos:R:3:forces:R:3 energy=-41.19520304707934 pbc="F F F"
Mo       0.00000000       0.00000000       0.00000000       0.00000000       0.00000000       1.07888091
Mo       0.00000000       0.00000000       4.29515152       0.00000000       0.00000000      -1.07888091
2
Properties=species:S:1:pos:R:3:forces:R:3 energy=-41.13564618516799 pbc="F F F"
Mo       0.00000000       0.00000000       0.00000000       0.00000000       0.00000000       0.94376189
Mo       0.00000000       0.00000000       4.35393939       0.00000000       0.00000000      -0.94376189
2
Properties=species:S:1:pos:R:3:forces:R:3 energy=-41.08459575953631 pbc="F F F"
Mo       0.00000000       0.00000000       0.00000000       0.00000000       0.00000000       0.79068619
Mo       0.00000000       0.00000000       4.41272727       0.00000000       0.00000000      -0.79068619
2
Properties=species:S:1:pos:R:3:forces:R:3 energy=-41.04286794275283 pbc="F F F"
Mo       0.00000000       0.00000000       0.00000000       0.00000000       0.00000000       0.62805837
Mo       0.00000000       0.00000000       4.47151515       0.00000000       0.00000000      -0.62805837
2
Properties=species:S:1:pos:R:3:forces:R:3 energy=-41.01075255043942 pbc="F F F"
Mo       0.00000000       0.00000000       0.00000000       0.00000000       0.00000000       0.46521521
Mo       0.00000000       0.00000000       4.53030303       0.00000000       0.00000000      -0.46521521
2
Properties=species:S:1:pos:R:3:forces:R:3 energy=-40.98799394877805 pbc="F F F"
Mo       0.00000000       0.00000000       0.00000000       0.00000000       0.00000000       0.31131619
Mo       0.00000000       0.00000000       4.58909091       0.00000000       0.00000000      -0.31131619
2
Properties=species:S:1:pos:R:3:forces:R:3 energy=-40.973813966453015 pbc="F F F"
Mo       0.00000000       0.00000000       0.00000000       0.00000000       0.00000000       0.17449974
Mo       0.00000000       0.00000000       4.64787879       0.00000000       0.00000000      -0.17449974
2
Properties=species:S:1:pos:R:3:forces:R:3 energy=-40.96701488514149 pbc="F F F"
Mo       0.00000000       0.00000000       0.00000000       0.00000000       0.00000000       0.06111629
Mo       0.00000000       0.00000000       4.70666667       0.00000000       0.00000000      -0.06111629
2
Properties=species:S:1:pos:R:3:forces:R:3 energy=-40.96609388993494 pbc="F F F"
Mo       0.00000000       0.00000000       0.00000000       0.00000000       0.00000000      -0.02499007
Mo       0.00000000       0.00000000       4.76545455       0.00000000       0.00000000       0.02499007
2
Properties=species:S:1:pos:R:3:forces:R:3 energy=-40.96939947034313 pbc="F F F"
Mo       0.00000000       0.00000000       0.00000000       0.00000000       0.00000000      -0.08288073
Mo       0.00000000       0.00000000       4.82424242       0.00000000       0.00000000       0.08288073
2
Properties=species:S:1:pos:R:3:forces:R:3 energy=-40.97531073165642 pbc="F F F"
Mo       0.00000000       0.00000000       0.00000000       0.00000000       0.00000000      -0.11400616
Mo       0.00000000       0.00000000       4.88303030       0.00000000       0.00000000       0.11400616
2
Properties=species:S:1:pos:R:3:forces:R:3 energy=-40.982328919169774 pbc="F F F"
Mo       0.00000000       0.00000000       0.00000000       0.00000000       0.00000000      -0.12097459
Mo       0.00000000       0.00000000       4.94181818       0.00000000       0.00000000       0.12097459
2
Properties=species:S:1:pos:R:3:forces:R:3 energy=-40.98910795476778 pbc="F F F"
Mo       0.00000000       0.00000000       0.00000000       0.00000000       0.00000000      -0.10610102
Mo       0.00000000       0.00000000       5.00060606       0.00000000       0.00000000       0.10610102
2
Properties=species:S:1:pos:R:3:forces:R:3 energy=-40.99440867006098 pbc="F F F"
Mo       0.00000000       0.00000000       0.00000000       0.00000000       0.00000000      -0.07102257
Mo       0.00000000       0.00000000       5.05939394       0.00000000       0.00000000       0.07102257
2
Properties=species:S:1:pos:R:3:forces:R:3 energy=-40.997106404102105 pbc="F F F"
Mo       0.00000000       0.00000000       0.00000000       0.00000000       0.00000000      -0.01806625
Mo       0.00000000       0.00000000       5.11818182       0.00000000       0.00000000       0.01806625
2
Properties=species:S:1:pos:R:3:forces:R:3 energy=-40.99629400971581 pbc="F F F"
Mo       0.00000000       0.00000000       0.00000000       0.00000000       0.00000000       0.04692744
Mo       0.00000000       0.00000000       5.17696970       0.00000000       0.00000000      -0.04692744
2
Properties=species:S:1:pos:R:3:forces:R:3 energy=-40.99158322408604 pbc="F F F"
Mo       0.00000000       0.00000000       0.00000000       0.00000000       0.00000000       0.11190412
Mo       0.00000000       0.00000000       5.23575758       0.00000000       0.00000000      -0.11190412
2
Properties=species:S:1:pos:R:3:forces:R:3 energy=-40.98347846949033 pbc="F F F"
Mo       0.00000000       0.00000000       0.00000000       0.00000000       0.00000000       0.15952073
Mo       0.00000000       0.00000000       5.29454545       0.00000000       0.00000000      -0.15952073
2
Properties=species:S:1:pos:R:3:forces:R:3 energy=-40.973437910630786 pbc="F F F"
Mo       0.00000000       0.00000000       0.00000000       0.00000000       0.00000000       0.17695682
Mo       0.00000000       0.00000000       5.35333333       0.00000000       0.00000000      -0.17695682
2
Properties=species:S:1:pos:R:3:forces:R:3 energy=-40.96305326779551 pbc="F F F"
Mo       0.00000000       0.00000000       0.00000000       0.00000000       0.00000000       0.17624348
Mo       0.00000000       0.00000000       5.41212121       0.00000000       0.00000000      -0.17624348
2
Properties=species:S:1:pos:R:3:forces:R:3 energy=-40.95232174474205 pbc="F F F"
Mo       0.00000000       0.00000000       0.00000000       0.00000000       0.00000000       0.19389415
Mo       0.00000000       0.00000000       5.47090909       0.00000000       0.00000000      -0.19389415
2
Properties=species:S:1:pos:R:3:forces:R:3 energy=-40.94000461024039 pbc="F F F"
Mo       0.00000000       0.00000000       0.00000000       0.00000000       0.00000000       0.22172628
Mo       0.00000000       0.00000000       5.52969697       0.00000000       0.00000000      -0.22172628
2
Properties=species:S:1:pos:R:3:forces:R:3 energy=-40.92717485227478 pbc="F F F"
Mo       0.00000000       0.00000000       0.00000000       0.00000000       0.00000000       0.20614754
Mo       0.00000000       0.00000000       5.58848485       0.00000000       0.00000000      -0.20614754
2
Properties=species:S:1:pos:R:3:forces:R:3 energy=-40.916328334573876 pbc="F F F"
Mo       0.00000000       0.00000000       0.00000000       0.00000000       0.00000000       0.16331813
Mo       0.00000000       0.00000000       5.64727273       0.00000000       0.00000000      -0.16331813
2
Properties=species:S:1:pos:R:3:forces:R:3 energy=-40.90744702032116 pbc="F F F"
Mo       0.00000000       0.00000000       0.00000000       0.00000000       0.00000000       0.14543161
Mo       0.00000000       0.00000000       5.70606061       0.00000000       0.00000000      -0.14543161
2
Properties=species:S:1:pos:R:3:forces:R:3 energy=-40.89870849871869 pbc="F F F"
Mo       0.00000000       0.00000000       0.00000000       0.00000000       0.00000000       0.14996508
Mo       0.00000000       0.00000000       5.76484848       0.00000000       0.00000000      -0.14996508
2
Properties=species:S:1:pos:R:3:forces:R:3 energy=-40.89061347871706 pbc="F F F"
Mo       0.00000000       0.00000000       0.00000000       0.00000000       0.00000000       0.11711662
Mo       0.00000000       0.00000000       5.82363636       0.00000000       0.00000000      -0.11711662
2
Properties=species:S:1:pos:R:3:forces:R:3 energy=-40.88549366534962 pbc="F F F"
Mo       0.00000000       0.00000000       0.00000000       0.00000000       0.00000000       0.05825300
Mo       0.00000000       0.00000000       5.88242424       0.00000000       0.00000000      -0.05825300
2
Properties=species:S:1:pos:R:3:forces:R:3 energy=-40.883346129325396 pbc="F F F"
Mo       0.00000000       0.00000000       0.00000000       0.00000000       0.00000000       0.01904656
Mo       0.00000000       0.00000000       5.94121212       0.00000000       0.00000000      -0.01904656
2
Properties=species:S:1:pos:R:3:forces:R:3 energy=-40.88272973079219 pbc="F F F"
Mo       0.00000000       0.00000000       0.00000000       0.00000000       0.00000000       0.00628313
Mo       0.00000000       0.00000000       6.00000000       0.00000000       0.00000000      -0.00628313
