2
Properties=species:S:1:pos:R:3:forces:R:3 energy=-2083.4168604872275 pbc="F F F"
N        0.00000000       0.00000000       0.00000000       0.00000000       0.00000000    5753.19042969
N        0.00000000       0.00000000       0.18000000       0.00000000       0.00000000   -5753.19042969
2
Properties=species:S:1:pos:R:3:forces:R:3 energy=-1381.4882716200402 pbc="F F F"
N        0.00000000       0.00000000       0.00000000       0.00000000       0.00000000   15671.44238281
N        0.00000000       0.00000000       0.23878788       0.00000000       0.00000000  -15671.44238281
2
Properties=species:S:1:pos:R:3:forces:R:3 energy=-9.290546323623726 pbc="F F F"
N        0.00000000       0.00000000       0.00000000       0.00000000       0.00000000   21187.89062500
N        0.00000000       0.00000000       0.29757576       0.00000000       0.00000000  -21187.89062500
2
Properties=species:S:1:pos:R:3:forces:R:3 energy=872.2291966424705 pbc="F F F"
N        0.00000000       0.00000000       0.00000000       0.00000000       0.00000000   -1035.02941895
N        0.00000000       0.00000000       0.35636364       0.00000000       0.00000000    1035.02941895
2
Properties=species:S:1:pos:R:3:forces:R:3 energy=501.4458409307678 pbc="F F F"
N        0.00000000       0.00000000       0.00000000       0.00000000       0.00000000   -5609.11572266
N        0.00000000       0.00000000       0.41515152       0.00000000       0.00000000    5609.11572266
2
Properties=species:S:1:pos:R:3:forces:R:3 energy=213.34519396048742 pbc="F F F"
N        0.00000000       0.00000000       0.00000000       0.00000000       0.00000000   -3305.37792969
N        0.00000000       0.00000000       0.47393939       0.00000000       0.00000000    3305.37792969
2
Properties=species:S:1:pos:R:3:forces:R:3 energy=81.71855364482097 pbc="F F F"
N        0.00000000       0.00000000       0.00000000       0.00000000       0.00000000   -1463.68664551
N        0.00000000       0.00000000       0.53272727       0.00000000       0.00000000    1463.68664551
2
Properties=species:S:1:pos:R:3:forces:R:3 energy=34.92619143901179 pbc="F F F"
N        0.00000000       0.00000000       0.00000000       0.00000000       0.00000000    -269.80343628
N        0.00000000       0.00000000       0.59151515       0.00000000       0.00000000     269.80343628
2
Properties=species:S:1:pos:R:3:forces:R:3 energy=24.155843856072256 pbc="F F F"
N        0.00000000       0.00000000       0.00000000       0.00000000       0.00000000     -88.58695221
N        0.00000000       0.00000000       0.65030303       0.00000000       0.00000000      88.58695221
2
Properties=species:S:1:pos:R:3:forces:R:3 energy=13.915265223650966 pbc="F F F"
N        0.00000000       0.00000000       0.00000000       0.00000000       0.00000000    -208.82797241
N        0.00000000       0.00000000       0.70909091       0.00000000       0.00000000     208.82797241
2
Properties=species:S:1:pos:R:3:forces:R:3 energy=3.111924340890098 pbc="F F F"
N        0.00000000       0.00000000       0.00000000       0.00000000       0.00000000    -163.07180786
N        0.00000000       0.00000000       0.76787879       0.00000000       0.00000000     163.07180786
2
Properties=species:S:1:pos:R:3:forces:R:3 energy=-5.125735070887995 pbc="F F F"
N        0.00000000       0.00000000       0.00000000       0.00000000       0.00000000    -120.71198273
N        0.00000000       0.00000000       0.82666667       0.00000000       0.00000000     120.71198273
2
Properties=species:S:1:pos:R:3:forces:R:3 energy=-11.11566325584783 pbc="F F F"
N        0.00000000       0.00000000       0.00000000       0.00000000       0.00000000     -80.24940491
N        0.00000000       0.00000000       0.88545455       0.00000000       0.00000000      80.24940491
2
Properties=species:S:1:pos:R:3:forces:R:3 energy=-14.786899209316596 pbc="F F F"
N        0.00000000       0.00000000       0.00000000       0.00000000       0.00000000     -47.28579712
N        0.00000000       0.00000000       0.94424242       0.00000000       0.00000000      47.28579712
2
Properties=species:S:1:pos:R:3:forces:R:3 energy=-16.866120818758976 pbc="F F F"
N        0.00000000       0.00000000       0.00000000       0.00000000       0.00000000     -24.74707031
N        0.00000000       0.00000000       1.00303030       0.00000000       0.00000000      24.74707031
2
Properties=species:S:1:pos:R:3:forces:R:3 energy=-17.830285396828444 pbc="F F F"
N        0.00000000       0.00000000       0.00000000       0.00000000       0.00000000      -9.02499676
N        0.00000000       0.00000000       1.06181818       0.00000000       0.00000000       9.02499676
2
Properties=species:S:1:pos:R:3:forces:R:3 energy=-18.025014044020264 pbc="F F F"
N        0.00000000       0.00000000       0.00000000       0.00000000       0.00000000       1.67315900
N        0.00000000       0.00000000       1.12060606       0.00000000       0.00000000      -1.67315900
2
Properties=species:S:1:pos:R:3:forces:R:3 energy=-17.70577320983473 pbc="F F F"
N        0.00000000       0.00000000       0.00000000       0.00000000       0.00000000       8.74130535
N        0.00000000       0.00000000       1.17939394       0.00000000       0.00000000      -8.74130535
2
Properties=species:S:1:pos:R:3:forces:R:3 energy=-17.031666281490892 pbc="F F F"
N        0.00000000       0.00000000       0.00000000       0.00000000       0.00000000      13.95208359
N        0.00000000       0.00000000       1.23818182       0.00000000       0.00000000     -13.95208359
2
Properties=species:S:1:pos:R:3:forces:R:3 energy=-16.089290700823746 pbc="F F F"
N        0.00000000       0.00000000       0.00000000       0.00000000       0.00000000      18.01577759
N        0.00000000       0.00000000       1.29696970       0.00000000       0.00000000     -18.01577759
2
Properties=species:S:1:pos:R:3:forces:R:3 energy=-14.910037631233015 pbc="F F F"
N        0.00000000       0.00000000       0.00000000       0.00000000       0.00000000      22.15272903
N        0.00000000       0.00000000       1.35575758       0.00000000       0.00000000     -22.15272903
2
Properties=species:S:1:pos:R:3:forces:R:3 energy=-13.576221625565218 pbc="F F F"
N        0.00000000       0.00000000       0.00000000       0.00000000       0.00000000      20.89455414
N        0.00000000       0.00000000       1.41454545       0.00000000       0.00000000     -20.89455414
2
Properties=species:S:1:pos:R:3:forces:R:3 energy=-12.72716605499079 pbc="F F F"
N        0.00000000       0.00000000       0.00000000       0.00000000       0.00000000       8.31819248
N        0.00000000       0.00000000       1.47333333       0.00000000       0.00000000      -8.31819248
2
Properties=species:S:1:pos:R:3:forces:R:3 energy=-12.169884702808194 pbc="F F F"
N        0.00000000       0.00000000       0.00000000       0.00000000       0.00000000      14.30711174
N        0.00000000       0.00000000       1.53212121       0.00000000       0.00000000     -14.30711174
2
Properties=species:S:1:pos:R:3:forces:R:3 energy=-11.289734984290847 pbc="F F F"
N        0.00000000       0.00000000       0.00000000       0.00000000       0.00000000       8.25788879
N        0.00000000       0.00000000       1.59090909       0.00000000       0.00000000      -8.25788879
2
Properties=species:S:1:pos:R:3:forces:R:3 energy=-11.324151375976907 pbc="F F F"
N        0.00000000       0.00000000       0.00000000       0.00000000       0.00000000      -2.72257948
N        0.00000000       0.00000000       1.64969697       0.00000000       0.00000000       2.72257948
2
Properties=species:S:1:pos:R:3:forces:R:3 energy=-11.490987180201062 pbc="F F F"
N        0.00000000       0.00000000       0.00000000       0.00000000       0.00000000      -5.64814520
N        0.00000000       0.00000000       1.70848485       0.00000000       0.00000000       5.64814520
2
Properties=species:S:1:pos:R:3:forces:R:3 energy=-11.698331595885426 pbc="F F F"
N        0.00000000       0.00000000       0.00000000       0.00000000       0.00000000       2.40960860
N        0.00000000       0.00000000       1.76727273       0.00000000       0.00000000      -2.40960860
2
Properties=species:S:1:pos:R:3:forces:R:3 energy=-11.28997381753996 pbc="F F F"
N        0.00000000       0.00000000       0.00000000       0.00000000       0.00000000       8.23812103
N        0.00000000       0.00000000       1.82606061       0.00000000       0.00000000      -8.23812103
2
Properties=species:S:1:pos:R:3:forces:R:3 energy=-10.882031089930132 pbc="F F F"
N        0.00000000       0.00000000       0.00000000       0.00000000       0.00000000       5.62262630
N        0.00000000       0.00000000       1.88484848       0.00000000       0.00000000      -5.62262630
2
Properties=species:S:1:pos:R:3:forces:R:3 energy=-10.656426528285422 pbc="F F F"
N        0.00000000       0.00000000       0.00000000       0.00000000       0.00000000       2.09160709
N        0.00000000       0.00000000       1.94363636       0.00000000       0.00000000      -2.09160709
2
Properties=species:S:1:pos:R:3:forces:R:3 energy=-10.499866344166108 pbc="F F F"
N        0.00000000       0.00000000       0.00000000       0.00000000       0.00000000       4.95243835
N        0.00000000       0.00000000       2.00242424       0.00000000       0.00000000      -4.95243835
2
Properties=species:S:1:pos:R:3:forces:R:3 energy=-10.056129299845143 pbc="F F F"
N        0.00000000       0.00000000       0.00000000       0.00000000       0.00000000       8.57389450
N        0.00000000       0.00000000       2.06121212       0.00000000       0.00000000      -8.57389450
2
Properties=species:S:1:pos:R:3:forces:R:3 energy=-9.643084401730114 pbc="F F F"
N        0.00000000       0.00000000       0.00000000       0.00000000       0.00000000       5.24822950
N        0.00000000       0.00000000       2.12000000       0.00000000       0.00000000      -5.24822950
2
Properties=species:S:1:pos:R:3:forces:R:3 energy=-9.412744188884556 pbc="F F F"
N        0.00000000       0.00000000       0.00000000       0.00000000       0.00000000       2.80304074
N        0.00000000       0.00000000       2.17878788       0.00000000       0.00000000      -2.80304074
2
Properties=species:S:1:pos:R:3:forces:R:3 energy=-9.295563684958081 pbc="F F F"
N        0.00000000       0.00000000       0.00000000       0.00000000       0.00000000       1.34234941
N        0.00000000       0.00000000       2.23757576       0.00000000       0.00000000      -1.34234941
2
Properties=species:S:1:pos:R:3:forces:R:3 energy=-9.236570801676761 pbc="F F F"
N        0.00000000       0.00000000       0.00000000       0.00000000       0.00000000       0.78676146
N        0.00000000       0.00000000       2.29636364       0.00000000       0.00000000      -0.78676146
2
Properties=species:S:1:pos:R:3:forces:R:3 energy=-9.194546454965673 pbc="F F F"
N        0.00000000       0.00000000       0.00000000       0.00000000       0.00000000       0.67355692
N        0.00000000       0.00000000       2.35515152       0.00000000       0.00000000      -0.67355692
2
Properties=species:S:1:pos:R:3:forces:R:3 energy=-9.156360701352808 pbc="F F F"
N        0.00000000       0.00000000       0.00000000       0.00000000       0.00000000       0.62399501
N        0.00000000       0.00000000       2.41393939       0.00000000       0.00000000      -0.62399501
2
Properties=species:S:1:pos:R:3:forces:R:3 energy=-9.121345079686742 pbc="F F F"
N        0.00000000       0.00000000       0.00000000       0.00000000       0.00000000       0.56854934
N        0.00000000       0.00000000       2.47272727       0.00000000       0.00000000      -0.56854934
2
Properties=species:S:1:pos:R:3:forces:R:3 energy=-9.089045617432186 pbc="F F F"
N        0.00000000       0.00000000       0.00000000       0.00000000       0.00000000       0.53556436
N        0.00000000       0.00000000       2.53151515       0.00000000       0.00000000      -0.53556436
2
Properties=species:S:1:pos:R:3:forces:R:3 energy=-9.057837184653854 pbc="F F F"
N        0.00000000       0.00000000       0.00000000       0.00000000       0.00000000       0.52918506
N        0.00000000       0.00000000       2.59030303       0.00000000       0.00000000      -0.52918506
2
Properties=species:S:1:pos:R:3:forces:R:3 energy=-9.026713555953494 pbc="F F F"
N        0.00000000       0.00000000       0.00000000       0.00000000       0.00000000       0.52870637
N        0.00000000       0.00000000       2.64909091       0.00000000       0.00000000      -0.52870637
2
Properties=species:S:1:pos:R:3:forces:R:3 energy=-8.995931158848446 pbc="F F F"
N        0.00000000       0.00000000       0.00000000       0.00000000       0.00000000       0.51559699
N        0.00000000       0.00000000       2.70787879       0.00000000       0.00000000      -0.51559699
2
Properties=species:S:1:pos:R:3:forces:R:3 energy=-8.96645117924626 pbc="F F F"
N        0.00000000       0.00000000       0.00000000       0.00000000       0.00000000       0.48452619
N        0.00000000       0.00000000       2.76666667       0.00000000       0.00000000      -0.48452619
2
Properties=species:S:1:pos:R:3:forces:R:3 energy=-8.939223355200902 pbc="F F F"
N        0.00000000       0.00000000       0.00000000       0.00000000       0.00000000       0.44023493
N        0.00000000       0.00000000       2.82545455       0.00000000       0.00000000      -0.44023493
2
Properties=species:S:1:pos:R:3:forces:R:3 energy=-8.914790209397031 pbc="F F F"
N        0.00000000       0.00000000       0.00000000       0.00000000       0.00000000       0.39076191
N        0.00000000       0.00000000       2.88424242       0.00000000       0.00000000      -0.39076191
2
Properties=species:S:1:pos:R:3:forces:R:3 energy=-8.893250811901847 pbc="F F F"
N        0.00000000       0.00000000       0.00000000       0.00000000       0.00000000       0.34257653
N        0.00000000       0.00000000       2.94303030       0.00000000       0.00000000      -0.34257653
2
Properties=species:S:1:pos:R:3:forces:R:3 energy=-8.874424815711304 pbc="F F F"
N        0.00000000       0.00000000       0.00000000       0.00000000       0.00000000       0.29871178
N        0.00000000       0.00000000       3.00181818       0.00000000       0.00000000      -0.29871178
2
Properties=species:S:1:pos:R:3:forces:R:3 energy=-8.858045100545947 pbc="F F F"
N        0.00000000       0.00000000       0.00000000       0.00000000       0.00000000       0.25912565
N        0.00000000       0.00000000       3.06060606       0.00000000       0.00000000      -0.25912565
2
Properties=species:S:1:pos:R:3:forces:R:3 energy=-8.843907507044166 pbc="F F F"
N        0.00000000       0.00000000       0.00000000       0.00000000       0.00000000       0.22211595
N        0.00000000       0.00000000       3.11939394       0.00000000       0.00000000      -0.22211595
2
Properties=species:S:1:pos:R:3:forces:R:3 energy=-8.83191661273341 pbc="F F F"
N        0.00000000       0.00000000       0.00000000       0.00000000       0.00000000       0.18581061
N        0.00000000       0.00000000       3.17818182       0.00000000       0.00000000      -0.18581061
2
Properties=species:S:1:pos:R:3:forces:R:3 energy=-8.822069523328597 pbc="F F F"
N        0.00000000       0.00000000       0.00000000       0.00000000       0.00000000       0.14911865
N        0.00000000       0.00000000       3.23696970       0.00000000       0.00000000      -0.14911865
2
Properties=species:S:1:pos:R:3:forces:R:3 energy=-8.814391027630332 pbc="F F F"
N        0.00000000       0.00000000       0.00000000       0.00000000       0.00000000       0.11210047
N        0.00000000       0.00000000       3.29575758       0.00000000       0.00000000      -0.11210047
2
Properties=species:S:1:pos:R:3:forces:R:3 energy=-8.808874470113265 pbc="F F F"
N        0.00000000       0.00000000       0.00000000       0.00000000       0.00000000       0.07580679
N        0.00000000       0.00000000       3.35454545       0.00000000       0.00000000      -0.07580679
2
Properties=species:S:1:pos:R:3:forces:R:3 energy=-8.805432163623433 pbc="F F F"
N        0.00000000       0.00000000       0.00000000       0.00000000       0.00000000       0.04186089
N        0.00000000       0.00000000       3.41333333       0.00000000       0.00000000      -0.04186089
2
Properties=species:S:1:pos:R:3:forces:R:3 energy=-8.803873456254895 pbc="F F F"
N        0.00000000       0.00000000       0.00000000       0.00000000       0.00000000       0.01199043
N        0.00000000       0.00000000       3.47212121       0.00000000       0.00000000      -0.01199043
2
Properties=species:S:1:pos:R:3:forces:R:3 energy=-8.803914268686869 pbc="F F F"
N        0.00000000       0.00000000       0.00000000       0.00000000       0.00000000      -0.01236320
N        0.00000000       0.00000000       3.53090909       0.00000000       0.00000000       0.01236320
2
Properties=species:S:1:pos:R:3:forces:R:3 energy=-8.80520093703159 pbc="F F F"
N        0.00000000       0.00000000       0.00000000       0.00000000       0.00000000      -0.03030187
N        0.00000000       0.00000000       3.58969697       0.00000000       0.00000000       0.03030187
2
Properties=species:S:1:pos:R:3:forces:R:3 energy=-8.807345497992051 pbc="F F F"
N        0.00000000       0.00000000       0.00000000       0.00000000       0.00000000      -0.04156274
N        0.00000000       0.00000000       3.64848485       0.00000000       0.00000000       0.04156274
2
Properties=species:S:1:pos:R:3:forces:R:3 energy=-8.809962880180466 pbc="F F F"
N        0.00000000       0.00000000       0.00000000       0.00000000       0.00000000      -0.04651815
N        0.00000000       0.00000000       3.70727273       0.00000000       0.00000000       0.04651815
2
Properties=species:S:1:pos:R:3:forces:R:3 energy=-8.8127080956347 pbc="F F F"
N        0.00000000       0.00000000       0.00000000       0.00000000       0.00000000      -0.04606588
N        0.00000000       0.00000000       3.76606061       0.00000000       0.00000000       0.04606588
2
Properties=species:S:1:pos:R:3:forces:R:3 energy=-8.815298170961743 pbc="F F F"
N        0.00000000       0.00000000       0.00000000       0.00000000       0.00000000      -0.04144163
N        0.00000000       0.00000000       3.82484848       0.00000000       0.00000000       0.04144163
2
Properties=species:S:1:pos:R:3:forces:R:3 energy=-8.817525494224386 pbc="F F F"
N        0.00000000       0.00000000       0.00000000       0.00000000       0.00000000      -0.03398123
N        0.00000000       0.00000000       3.88363636       0.00000000       0.00000000       0.03398123
2
Properties=species:S:1:pos:R:3:forces:R:3 energy=-8.81926067101446 pbc="F F F"
N        0.00000000       0.00000000       0.00000000       0.00000000       0.00000000      -0.02490057
N        0.00000000       0.00000000       3.94242424       0.00000000       0.00000000       0.02490057
2
Properties=species:S:1:pos:R:3:forces:R:3 energy=-8.820440121539 pbc="F F F"
N        0.00000000       0.00000000       0.00000000       0.00000000       0.00000000      -0.01515415
N        0.00000000       0.00000000       4.00121212       0.00000000       0.00000000       0.01515415
2
Properties=species:S:1:pos:R:3:forces:R:3 energy=-8.821043186496997 pbc="F F F"
N        0.00000000       0.00000000       0.00000000       0.00000000       0.00000000      -0.00542626
N        0.00000000       0.00000000       4.06000000       0.00000000       0.00000000       0.00542626
2
Properties=species:S:1:pos:R:3:forces:R:3 energy=-8.821089258928835 pbc="F F F"
N        0.00000000       0.00000000       0.00000000       0.00000000       0.00000000       0.00376943
N        0.00000000       0.00000000       4.11878788       0.00000000       0.00000000      -0.00376943
2
Properties=species:S:1:pos:R:3:forces:R:3 energy=-8.820620614514807 pbc="F F F"
N        0.00000000       0.00000000       0.00000000       0.00000000       0.00000000       0.01193835
N        0.00000000       0.00000000       4.17757576       0.00000000       0.00000000      -0.01193835
2
Properties=species:S:1:pos:R:3:forces:R:3 energy=-8.819715754700006 pbc="F F F"
N        0.00000000       0.00000000       0.00000000       0.00000000       0.00000000       0.01850899
N        0.00000000       0.00000000       4.23636364       0.00000000       0.00000000      -0.01850899
2
Properties=species:S:1:pos:R:3:forces:R:3 energy=-8.818488451436103 pbc="F F F"
N        0.00000000       0.00000000       0.00000000       0.00000000       0.00000000       0.02284260
N        0.00000000       0.00000000       4.29515152       0.00000000       0.00000000      -0.02284260
2
Properties=species:S:1:pos:R:3:forces:R:3 energy=-8.81708583349706 pbc="F F F"
N        0.00000000       0.00000000       0.00000000       0.00000000       0.00000000       0.02436275
N        0.00000000       0.00000000       4.35393939       0.00000000       0.00000000      -0.02436275
2
Properties=species:S:1:pos:R:3:forces:R:3 energy=-8.815686474873747 pbc="F F F"
N        0.00000000       0.00000000       0.00000000       0.00000000       0.00000000       0.02273252
N        0.00000000       0.00000000       4.41272727       0.00000000       0.00000000      -0.02273252
2
Properties=species:S:1:pos:R:3:forces:R:3 energy=-8.814474647250295 pbc="F F F"
N        0.00000000       0.00000000       0.00000000       0.00000000       0.00000000       0.01800833
N        0.00000000       0.00000000       4.47151515       0.00000000       0.00000000      -0.01800833
2
Properties=species:S:1:pos:R:3:forces:R:3 energy=-8.813620286606811 pbc="F F F"
N        0.00000000       0.00000000       0.00000000       0.00000000       0.00000000       0.01068131
N        0.00000000       0.00000000       4.53030303       0.00000000       0.00000000      -0.01068131
2
Properties=species:S:1:pos:R:3:forces:R:3 energy=-8.813252293011363 pbc="F F F"
N        0.00000000       0.00000000       0.00000000       0.00000000       0.00000000       0.00161696
N        0.00000000       0.00000000       4.58909091       0.00000000       0.00000000      -0.00161696
2
Properties=species:S:1:pos:R:3:forces:R:3 energy=-8.813443271929907 pbc="F F F"
N        0.00000000       0.00000000       0.00000000       0.00000000       0.00000000      -0.00811481
N        0.00000000       0.00000000       4.64787879       0.00000000       0.00000000       0.00811481
2
Properties=species:S:1:pos:R:3:forces:R:3 energy=-8.814198088946572 pbc="F F F"
N        0.00000000       0.00000000       0.00000000       0.00000000       0.00000000      -0.01743028
N        0.00000000       0.00000000       4.70666667       0.00000000       0.00000000       0.01743028
2
Properties=species:S:1:pos:R:3:forces:R:3 energy=-8.815465316825273 pbc="F F F"
N        0.00000000       0.00000000       0.00000000       0.00000000       0.00000000      -0.02539119
N        0.00000000       0.00000000       4.76545455       0.00000000       0.00000000       0.02539119
2
Properties=species:S:1:pos:R:3:forces:R:3 energy=-8.817143913407817 pbc="F F F"
N        0.00000000       0.00000000       0.00000000       0.00000000       0.00000000      -0.03134393
N        0.00000000       0.00000000       4.82424242       0.00000000       0.00000000       0.03134393
2
Properties=species:S:1:pos:R:3:forces:R:3 energy=-8.819104204824718 pbc="F F F"
N        0.00000000       0.00000000       0.00000000       0.00000000       0.00000000      -0.03494482
N        0.00000000       0.00000000       4.88303030       0.00000000       0.00000000       0.03494482
2
Properties=species:S:1:pos:R:3:forces:R:3 energy=-8.82120695878355 pbc="F F F"
N        0.00000000       0.00000000       0.00000000       0.00000000       0.00000000      -0.03621221
N        0.00000000       0.00000000       4.94181818       0.00000000       0.00000000       0.03621221
2
Properties=species:S:1:pos:R:3:forces:R:3 energy=-8.823322462807 pbc="F F F"
N        0.00000000       0.00000000       0.00000000       0.00000000       0.00000000      -0.03546913
N        0.00000000       0.00000000       5.00060606       0.00000000       0.00000000       0.03546913
2
Properties=species:S:1:pos:R:3:forces:R:3 energy=-8.825349600590032 pbc="F F F"
N        0.00000000       0.00000000       0.00000000       0.00000000       0.00000000      -0.03333639
N        0.00000000       0.00000000       5.05939394       0.00000000       0.00000000       0.03333639
2
Properties=species:S:1:pos:R:3:forces:R:3 energy=-8.82723301853357 pbc="F F F"
N        0.00000000       0.00000000       0.00000000       0.00000000       0.00000000      -0.03074304
N        0.00000000       0.00000000       5.11818182       0.00000000       0.00000000       0.03074304
2
Properties=species:S:1:pos:R:3:forces:R:3 energy=-8.828980294654029 pbc="F F F"
N        0.00000000       0.00000000       0.00000000       0.00000000       0.00000000      -0.02897083
N        0.00000000       0.00000000       5.17696970       0.00000000       0.00000000       0.02897083
2
Properties=species:S:1:pos:R:3:forces:R:3 energy=-8.83068673777834 pbc="F F F"
N        0.00000000       0.00000000       0.00000000       0.00000000       0.00000000      -0.02964199
N        0.00000000       0.00000000       5.23575758       0.00000000       0.00000000       0.02964199
2
Properties=species:S:1:pos:R:3:forces:R:3 energy=-8.832544922851692 pbc="F F F"
N        0.00000000       0.00000000       0.00000000       0.00000000       0.00000000      -0.03432673
N        0.00000000       0.00000000       5.29454545       0.00000000       0.00000000       0.03432673
2
Properties=species:S:1:pos:R:3:forces:R:3 energy=-8.834811317731662 pbc="F F F"
N        0.00000000       0.00000000       0.00000000       0.00000000       0.00000000      -0.04343444
N        0.00000000       0.00000000       5.35333333       0.00000000       0.00000000       0.04343444
2
Properties=species:S:1:pos:R:3:forces:R:3 energy=-8.837688026682017 pbc="F F F"
N        0.00000000       0.00000000       0.00000000       0.00000000       0.00000000      -0.05421349
N        0.00000000       0.00000000       5.41212121       0.00000000       0.00000000       0.05421349
2
Properties=species:S:1:pos:R:3:forces:R:3 energy=-8.841086280478686 pbc="F F F"
N        0.00000000       0.00000000       0.00000000       0.00000000       0.00000000      -0.05990642
N        0.00000000       0.00000000       5.47090909       0.00000000       0.00000000       0.05990642
2
Properties=species:S:1:pos:R:3:forces:R:3 energy=-8.844522487592165 pbc="F F F"
N        0.00000000       0.00000000       0.00000000       0.00000000       0.00000000      -0.05530101
N        0.00000000       0.00000000       5.52969697       0.00000000       0.00000000       0.05530101
2
Properties=species:S:1:pos:R:3:forces:R:3 energy=-8.84745774377858 pbc="F F F"
N        0.00000000       0.00000000       0.00000000       0.00000000       0.00000000      -0.04419924
N        0.00000000       0.00000000       5.58848485       0.00000000       0.00000000       0.04419924
2
Properties=species:S:1:pos:R:3:forces:R:3 energy=-8.849754641483273 pbc="F F F"
N        0.00000000       0.00000000       0.00000000       0.00000000       0.00000000      -0.03484929
N        0.00000000       0.00000000       5.64727273       0.00000000       0.00000000       0.03484929
2
Properties=species:S:1:pos:R:3:forces:R:3 energy=-8.851659151068233 pbc="F F F"
N        0.00000000       0.00000000       0.00000000       0.00000000       0.00000000      -0.03030875
N        0.00000000       0.00000000       5.70606061       0.00000000       0.00000000       0.03030875
2
Properties=species:S:1:pos:R:3:forces:R:3 energy=-8.853262749858818 pbc="F F F"
N        0.00000000       0.00000000       0.00000000       0.00000000       0.00000000      -0.02306457
N        0.00000000       0.00000000       5.76484848       0.00000000       0.00000000       0.02306457
2
Properties=species:S:1:pos:R:3:forces:R:3 energy=-8.854281169405368 pbc="F F F"
N        0.00000000       0.00000000       0.00000000       0.00000000       0.00000000      -0.01152665
N        0.00000000       0.00000000       5.82363636       0.00000000       0.00000000       0.01152665
2
Properties=species:S:1:pos:R:3:forces:R:3 energy=-8.854690496153246 pbc="F F F"
N        0.00000000       0.00000000       0.00000000       0.00000000       0.00000000      -0.00342847
N        0.00000000       0.00000000       5.88242424       0.00000000       0.00000000       0.00342847
2
Properties=species:S:1:pos:R:3:forces:R:3 energy=-8.854784393263003 pbc="F F F"
N        0.00000000       0.00000000       0.00000000       0.00000000       0.00000000      -0.00035969
N        0.00000000       0.00000000       5.94121212       0.00000000       0.00000000       0.00035969
2
Properties=species:S:1:pos:R:3:forces:R:3 energy=-8.854778324803872 pbc="F F F"
N        0.00000000       0.00000000       0.00000000       0.00000000       0.00000000       0.00030492
N        0.00000000       0.00000000       6.00000000       0.00000000       0.00000000      -0.00030492
