2
Properties=species:S:1:pos:R:3:forces:R:3 energy=-818.4291530815043 pbc="F F F"
O        0.00000000       0.00000000       0.00000000       0.00000000       0.00000000   -7446.65820312
O        0.00000000       0.00000000       0.18000000       0.00000000       0.00000000    7446.65820312
2
Properties=species:S:1:pos:R:3:forces:R:3 energy=-1195.499404546348 pbc="F F F"
O        0.00000000       0.00000000       0.00000000       0.00000000       0.00000000   -6227.90771484
O        0.00000000       0.00000000       0.23878788       0.00000000       0.00000000    6227.90771484
2
Properties=species:S:1:pos:R:3:forces:R:3 energy=-1625.8625637258376 pbc="F F F"
O        0.00000000       0.00000000       0.00000000       0.00000000       0.00000000   -7977.19775391
O        0.00000000       0.00000000       0.29757576       0.00000000       0.00000000    7977.19775391
2
Properties=species:S:1:pos:R:3:forces:R:3 energy=-2231.1015773975146 pbc="F F F"
O        0.00000000       0.00000000       0.00000000       0.00000000       0.00000000   -1430.05444336
O        0.00000000       0.00000000       0.35636364       0.00000000       0.00000000    1430.05444336
2
Properties=species:S:1:pos:R:3:forces:R:3 energy=-1540.5448147014101 pbc="F F F"
O        0.00000000       0.00000000       0.00000000       0.00000000       0.00000000   17407.62695312
O        0.00000000       0.00000000       0.41515152       0.00000000       0.00000000  -17407.62695312
2
Properties=species:S:1:pos:R:3:forces:R:3 energy=-528.4976345242429 pbc="F F F"
O        0.00000000       0.00000000       0.00000000       0.00000000       0.00000000   13391.15429688
O        0.00000000       0.00000000       0.47393939       0.00000000       0.00000000  -13391.15429688
2
Properties=species:S:1:pos:R:3:forces:R:3 energy=-26.030990233965724 pbc="F F F"
O        0.00000000       0.00000000       0.00000000       0.00000000       0.00000000    4543.21240234
O        0.00000000       0.00000000       0.53272727       0.00000000       0.00000000   -4543.21240234
2
Properties=species:S:1:pos:R:3:forces:R:3 energy=78.61721838895006 pbc="F F F"
O        0.00000000       0.00000000       0.00000000       0.00000000       0.00000000    -148.65452576
O        0.00000000       0.00000000       0.59151515       0.00000000       0.00000000     148.65452576
2
Properties=species:S:1:pos:R:3:forces:R:3 energy=38.22238578618162 pbc="F F F"
O        0.00000000       0.00000000       0.00000000       0.00000000       0.00000000    -597.36901855
O        0.00000000       0.00000000       0.65030303       0.00000000       0.00000000     597.36901855
2
Properties=species:S:1:pos:R:3:forces:R:3 energy=19.831562434595096 pbc="F F F"
O        0.00000000       0.00000000       0.00000000       0.00000000       0.00000000    -260.30184937
O        0.00000000       0.00000000       0.70909091       0.00000000       0.00000000     260.30184937
2
Properties=species:S:1:pos:R:3:forces:R:3 energy=7.949713165255565 pbc="F F F"
O        0.00000000       0.00000000       0.00000000       0.00000000       0.00000000    -158.13276672
O        0.00000000       0.00000000       0.76787879       0.00000000       0.00000000     158.13276672
2
Properties=species:S:1:pos:R:3:forces:R:3 energy=1.6680883997596168 pbc="F F F"
O        0.00000000       0.00000000       0.00000000       0.00000000       0.00000000     -63.12691879
O        0.00000000       0.00000000       0.82666667       0.00000000       0.00000000      63.12691879
2
Properties=species:S:1:pos:R:3:forces:R:3 energy=-2.4707584334937445 pbc="F F F"
O        0.00000000       0.00000000       0.00000000       0.00000000       0.00000000     -69.59062958
O        0.00000000       0.00000000       0.88545455       0.00000000       0.00000000      69.59062958
2
Properties=species:S:1:pos:R:3:forces:R:3 energy=-5.9210543020093045 pbc="F F F"
O        0.00000000       0.00000000       0.00000000       0.00000000       0.00000000     -51.18069077
O        0.00000000       0.00000000       0.94424242       0.00000000       0.00000000      51.18069077
2
Properties=species:S:1:pos:R:3:forces:R:3 energy=-8.55820689739956 pbc="F F F"
O        0.00000000       0.00000000       0.00000000       0.00000000       0.00000000     -37.87823868
O        0.00000000       0.00000000       1.00303030       0.00000000       0.00000000      37.87823868
2
Properties=species:S:1:pos:R:3:forces:R:3 energy=-10.329634908006373 pbc="F F F"
O        0.00000000       0.00000000       0.00000000       0.00000000       0.00000000     -22.61002731
O        0.00000000       0.00000000       1.06181818       0.00000000       0.00000000      22.61002731
2
Properties=species:S:1:pos:R:3:forces:R:3 energy=-11.29527200178798 pbc="F F F"
O        0.00000000       0.00000000       0.00000000       0.00000000       0.00000000     -11.04491043
O        0.00000000       0.00000000       1.12060606       0.00000000       0.00000000      11.04491043
2
Properties=species:S:1:pos:R:3:forces:R:3 energy=-11.708388356287752 pbc="F F F"
O        0.00000000       0.00000000       0.00000000       0.00000000       0.00000000      -3.54198742
O        0.00000000       0.00000000       1.17939394       0.00000000       0.00000000       3.54198742
2
Properties=species:S:1:pos:R:3:forces:R:3 energy=-11.761366862211297 pbc="F F F"
O        0.00000000       0.00000000       0.00000000       0.00000000       0.00000000       1.39506340
O        0.00000000       0.00000000       1.23818182       0.00000000       0.00000000      -1.39506340
2
Properties=species:S:1:pos:R:3:forces:R:3 energy=-11.577389998659307 pbc="F F F"
O        0.00000000       0.00000000       0.00000000       0.00000000       0.00000000       4.64282131
O        0.00000000       0.00000000       1.29696970       0.00000000       0.00000000      -4.64282131
2
Properties=species:S:1:pos:R:3:forces:R:3 energy=-11.236095660960949 pbc="F F F"
O        0.00000000       0.00000000       0.00000000       0.00000000       0.00000000       6.82213259
O        0.00000000       0.00000000       1.35575758       0.00000000       0.00000000      -6.82213259
2
Properties=species:S:1:pos:R:3:forces:R:3 energy=-10.794765076603959 pbc="F F F"
O        0.00000000       0.00000000       0.00000000       0.00000000       0.00000000       8.03374481
O        0.00000000       0.00000000       1.41454545       0.00000000       0.00000000      -8.03374481
2
Properties=species:S:1:pos:R:3:forces:R:3 energy=-10.299337172033368 pbc="F F F"
O        0.00000000       0.00000000       0.00000000       0.00000000       0.00000000       8.79212952
O        0.00000000       0.00000000       1.47333333       0.00000000       0.00000000      -8.79212952
2
Properties=species:S:1:pos:R:3:forces:R:3 energy=-9.773752032776533 pbc="F F F"
O        0.00000000       0.00000000       0.00000000       0.00000000       0.00000000       8.98132706
O        0.00000000       0.00000000       1.53212121       0.00000000       0.00000000      -8.98132706
2
Properties=species:S:1:pos:R:3:forces:R:3 energy=-9.241258518479992 pbc="F F F"
O        0.00000000       0.00000000       0.00000000       0.00000000       0.00000000       9.21043873
O        0.00000000       0.00000000       1.59090909       0.00000000       0.00000000      -9.21043873
2
Properties=species:S:1:pos:R:3:forces:R:3 energy=-8.680824036847362 pbc="F F F"
O        0.00000000       0.00000000       0.00000000       0.00000000       0.00000000       9.96830750
O        0.00000000       0.00000000       1.64969697       0.00000000       0.00000000      -9.96830750
2
Properties=species:S:1:pos:R:3:forces:R:3 energy=-8.078090901200182 pbc="F F F"
O        0.00000000       0.00000000       0.00000000       0.00000000       0.00000000      10.00487137
O        0.00000000       0.00000000       1.70848485       0.00000000       0.00000000     -10.00487137
2
Properties=species:S:1:pos:R:3:forces:R:3 energy=-7.616263743414382 pbc="F F F"
O        0.00000000       0.00000000       0.00000000       0.00000000       0.00000000       4.82221699
O        0.00000000       0.00000000       1.76727273       0.00000000       0.00000000      -4.82221699
2
Properties=species:S:1:pos:R:3:forces:R:3 energy=-7.518846127872021 pbc="F F F"
O        0.00000000       0.00000000       0.00000000       0.00000000       0.00000000      -0.82581633
O        0.00000000       0.00000000       1.82606061       0.00000000       0.00000000       0.82581633
2
Properties=species:S:1:pos:R:3:forces:R:3 energy=-7.636608563505947 pbc="F F F"
O        0.00000000       0.00000000       0.00000000       0.00000000       0.00000000      -2.88502812
O        0.00000000       0.00000000       1.88484848       0.00000000       0.00000000       2.88502812
2
Properties=species:S:1:pos:R:3:forces:R:3 energy=-7.84724769625002 pbc="F F F"
O        0.00000000       0.00000000       0.00000000       0.00000000       0.00000000      -4.15462351
O        0.00000000       0.00000000       1.94363636       0.00000000       0.00000000       4.15462351
2
Properties=species:S:1:pos:R:3:forces:R:3 energy=-8.092975367767083 pbc="F F F"
O        0.00000000       0.00000000       0.00000000       0.00000000       0.00000000      -3.85782766
O        0.00000000       0.00000000       2.00242424       0.00000000       0.00000000       3.85782766
2
Properties=species:S:1:pos:R:3:forces:R:3 energy=-8.267778113986074 pbc="F F F"
O        0.00000000       0.00000000       0.00000000       0.00000000       0.00000000      -1.93149364
O        0.00000000       0.00000000       2.06121212       0.00000000       0.00000000       1.93149364
2
Properties=species:S:1:pos:R:3:forces:R:3 energy=-8.317546113698787 pbc="F F F"
O        0.00000000       0.00000000       0.00000000       0.00000000       0.00000000       0.14930522
O        0.00000000       0.00000000       2.12000000       0.00000000       0.00000000      -0.14930522
2
Properties=species:S:1:pos:R:3:forces:R:3 energy=-8.267239216020215 pbc="F F F"
O        0.00000000       0.00000000       0.00000000       0.00000000       0.00000000       1.39912510
O        0.00000000       0.00000000       2.17878788       0.00000000       0.00000000      -1.39912510
2
Properties=species:S:1:pos:R:3:forces:R:3 energy=-8.16876507079583 pbc="F F F"
O        0.00000000       0.00000000       0.00000000       0.00000000       0.00000000       1.86796093
O        0.00000000       0.00000000       2.23757576       0.00000000       0.00000000      -1.86796093
2
Properties=species:S:1:pos:R:3:forces:R:3 energy=-8.050749183729902 pbc="F F F"
O        0.00000000       0.00000000       0.00000000       0.00000000       0.00000000       2.16194463
O        0.00000000       0.00000000       2.29636364       0.00000000       0.00000000      -2.16194463
2
Properties=species:S:1:pos:R:3:forces:R:3 energy=-7.9121577475108165 pbc="F F F"
O        0.00000000       0.00000000       0.00000000       0.00000000       0.00000000       2.55781913
O        0.00000000       0.00000000       2.35515152       0.00000000       0.00000000      -2.55781913
2
Properties=species:S:1:pos:R:3:forces:R:3 energy=-7.7528037926733235 pbc="F F F"
O        0.00000000       0.00000000       0.00000000       0.00000000       0.00000000       2.81569910
O        0.00000000       0.00000000       2.41393939       0.00000000       0.00000000      -2.81569910
2
Properties=species:S:1:pos:R:3:forces:R:3 energy=-7.587677104014522 pbc="F F F"
O        0.00000000       0.00000000       0.00000000       0.00000000       0.00000000       2.74851918
O        0.00000000       0.00000000       2.47272727       0.00000000       0.00000000      -2.74851918
2
Properties=species:S:1:pos:R:3:forces:R:3 energy=-7.4344825693887495 pbc="F F F"
O        0.00000000       0.00000000       0.00000000       0.00000000       0.00000000       2.43657660
O        0.00000000       0.00000000       2.53151515       0.00000000       0.00000000      -2.43657660
2
Properties=species:S:1:pos:R:3:forces:R:3 energy=-7.302768769931682 pbc="F F F"
O        0.00000000       0.00000000       0.00000000       0.00000000       0.00000000       2.04180670
O        0.00000000       0.00000000       2.59030303       0.00000000       0.00000000      -2.04180670
2
Properties=species:S:1:pos:R:3:forces:R:3 energy=-7.193937998986354 pbc="F F F"
O        0.00000000       0.00000000       0.00000000       0.00000000       0.00000000       1.66904831
O        0.00000000       0.00000000       2.64909091       0.00000000       0.00000000      -1.66904831
2
Properties=species:S:1:pos:R:3:forces:R:3 energy=-7.1053594578459025 pbc="F F F"
O        0.00000000       0.00000000       0.00000000       0.00000000       0.00000000       1.35475588
O        0.00000000       0.00000000       2.70787879       0.00000000       0.00000000      -1.35475588
2
Properties=species:S:1:pos:R:3:forces:R:3 energy=-7.033495405706445 pbc="F F F"
O        0.00000000       0.00000000       0.00000000       0.00000000       0.00000000       1.09912550
O        0.00000000       0.00000000       2.76666667       0.00000000       0.00000000      -1.09912550
2
Properties=species:S:1:pos:R:3:forces:R:3 energy=-6.975175745390947 pbc="F F F"
O        0.00000000       0.00000000       0.00000000       0.00000000       0.00000000       0.89226037
O        0.00000000       0.00000000       2.82545455       0.00000000       0.00000000      -0.89226037
2
Properties=species:S:1:pos:R:3:forces:R:3 energy=-6.927800202502298 pbc="F F F"
O        0.00000000       0.00000000       0.00000000       0.00000000       0.00000000       0.72572541
O        0.00000000       0.00000000       2.88424242       0.00000000       0.00000000      -0.72572541
2
Properties=species:S:1:pos:R:3:forces:R:3 energy=-6.889161903594323 pbc="F F F"
O        0.00000000       0.00000000       0.00000000       0.00000000       0.00000000       0.59426063
O        0.00000000       0.00000000       2.94303030       0.00000000       0.00000000      -0.59426063
2
Properties=species:S:1:pos:R:3:forces:R:3 energy=-6.857318149342136 pbc="F F F"
O        0.00000000       0.00000000       0.00000000       0.00000000       0.00000000       0.49392909
O        0.00000000       0.00000000       3.00181818       0.00000000       0.00000000      -0.49392909
2
Properties=species:S:1:pos:R:3:forces:R:3 energy=-6.830563238783904 pbc="F F F"
O        0.00000000       0.00000000       0.00000000       0.00000000       0.00000000       0.42034933
O        0.00000000       0.00000000       3.06060606       0.00000000       0.00000000      -0.42034933
2
Properties=species:S:1:pos:R:3:forces:R:3 energy=-6.807475203124132 pbc="F F F"
O        0.00000000       0.00000000       0.00000000       0.00000000       0.00000000       0.36819062
O        0.00000000       0.00000000       3.11939394       0.00000000       0.00000000      -0.36819062
2
Properties=species:S:1:pos:R:3:forces:R:3 energy=-6.7869658732393 pbc="F F F"
O        0.00000000       0.00000000       0.00000000       0.00000000       0.00000000       0.33166945
O        0.00000000       0.00000000       3.17818182       0.00000000       0.00000000      -0.33166945
2
Properties=species:S:1:pos:R:3:forces:R:3 energy=-6.768279452532202 pbc="F F F"
O        0.00000000       0.00000000       0.00000000       0.00000000       0.00000000       0.30537060
O        0.00000000       0.00000000       3.23696970       0.00000000       0.00000000      -0.30537060
2
Properties=species:S:1:pos:R:3:forces:R:3 energy=-6.750947697604881 pbc="F F F"
O        0.00000000       0.00000000       0.00000000       0.00000000       0.00000000       0.28495511
O        0.00000000       0.00000000       3.29575758       0.00000000       0.00000000      -0.28495511
2
Properties=species:S:1:pos:R:3:forces:R:3 energy=-6.734718389121103 pbc="F F F"
O        0.00000000       0.00000000       0.00000000       0.00000000       0.00000000       0.26751417
O        0.00000000       0.00000000       3.35454545       0.00000000       0.00000000      -0.26751417
2
Properties=species:S:1:pos:R:3:forces:R:3 energy=-6.719465218195972 pbc="F F F"
O        0.00000000       0.00000000       0.00000000       0.00000000       0.00000000       0.25162384
O        0.00000000       0.00000000       3.41333333       0.00000000       0.00000000      -0.25162384
2
Properties=species:S:1:pos:R:3:forces:R:3 energy=-6.705107195174512 pbc="F F F"
O        0.00000000       0.00000000       0.00000000       0.00000000       0.00000000       0.23711063
O        0.00000000       0.00000000       3.47212121       0.00000000       0.00000000      -0.23711063
2
Properties=species:S:1:pos:R:3:forces:R:3 energy=-6.691546664859879 pbc="F F F"
O        0.00000000       0.00000000       0.00000000       0.00000000       0.00000000       0.22466205
O        0.00000000       0.00000000       3.53090909       0.00000000       0.00000000      -0.22466205
2
Properties=species:S:1:pos:R:3:forces:R:3 energy=-6.678630680030693 pbc="F F F"
O        0.00000000       0.00000000       0.00000000       0.00000000       0.00000000       0.21534511
O        0.00000000       0.00000000       3.58969697       0.00000000       0.00000000      -0.21534511
2
Properties=species:S:1:pos:R:3:forces:R:3 energy=-6.666146711490525 pbc="F F F"
O        0.00000000       0.00000000       0.00000000       0.00000000       0.00000000       0.21012731
O        0.00000000       0.00000000       3.64848485       0.00000000       0.00000000      -0.21012731
2
Properties=species:S:1:pos:R:3:forces:R:3 energy=-6.653834566422996 pbc="F F F"
O        0.00000000       0.00000000       0.00000000       0.00000000       0.00000000       0.20950207
O        0.00000000       0.00000000       3.70727273       0.00000000       0.00000000      -0.20950207
2
Properties=species:S:1:pos:R:3:forces:R:3 energy=-6.641427392328618 pbc="F F F"
O        0.00000000       0.00000000       0.00000000       0.00000000       0.00000000       0.21326125
O        0.00000000       0.00000000       3.76606061       0.00000000       0.00000000      -0.21326125
2
Properties=species:S:1:pos:R:3:forces:R:3 energy=-6.628692208678198 pbc="F F F"
O        0.00000000       0.00000000       0.00000000       0.00000000       0.00000000       0.22046956
O        0.00000000       0.00000000       3.82484848       0.00000000       0.00000000      -0.22046956
2
Properties=species:S:1:pos:R:3:forces:R:3 energy=-6.615467572098632 pbc="F F F"
O        0.00000000       0.00000000       0.00000000       0.00000000       0.00000000       0.22962062
O        0.00000000       0.00000000       3.88363636       0.00000000       0.00000000      -0.22962062
2
Properties=species:S:1:pos:R:3:forces:R:3 energy=-6.601690750349231 pbc="F F F"
O        0.00000000       0.00000000       0.00000000       0.00000000       0.00000000       0.23893602
O        0.00000000       0.00000000       3.94242424       0.00000000       0.00000000      -0.23893602
2
Properties=species:S:1:pos:R:3:forces:R:3 energy=-6.587405351716257 pbc="F F F"
O        0.00000000       0.00000000       0.00000000       0.00000000       0.00000000       0.24671714
O        0.00000000       0.00000000       4.00121212       0.00000000       0.00000000      -0.24671714
2
Properties=species:S:1:pos:R:3:forces:R:3 energy=-6.5727393840690125 pbc="F F F"
O        0.00000000       0.00000000       0.00000000       0.00000000       0.00000000       0.25164521
O        0.00000000       0.00000000       4.06000000       0.00000000       0.00000000      -0.25164521
2
Properties=species:S:1:pos:R:3:forces:R:3 energy=-6.557889037743711 pbc="F F F"
O        0.00000000       0.00000000       0.00000000       0.00000000       0.00000000       0.25295597
O        0.00000000       0.00000000       4.11878788       0.00000000       0.00000000      -0.25295597
2
Properties=species:S:1:pos:R:3:forces:R:3 energy=-6.543073860474749 pbc="F F F"
O        0.00000000       0.00000000       0.00000000       0.00000000       0.00000000       0.25042564
O        0.00000000       0.00000000       4.17757576       0.00000000       0.00000000      -0.25042564
2
Properties=species:S:1:pos:R:3:forces:R:3 energy=-6.528516727264226 pbc="F F F"
O        0.00000000       0.00000000       0.00000000       0.00000000       0.00000000       0.24422412
O        0.00000000       0.00000000       4.23636364       0.00000000       0.00000000      -0.24422412
2
Properties=species:S:1:pos:R:3:forces:R:3 energy=-6.514423331533413 pbc="F F F"
O        0.00000000       0.00000000       0.00000000       0.00000000       0.00000000       0.23469940
O        0.00000000       0.00000000       4.29515152       0.00000000       0.00000000      -0.23469940
2
Properties=species:S:1:pos:R:3:forces:R:3 energy=-6.500979324891758 pbc="F F F"
O        0.00000000       0.00000000       0.00000000       0.00000000       0.00000000       0.22223499
O        0.00000000       0.00000000       4.35393939       0.00000000       0.00000000      -0.22223499
2
Properties=species:S:1:pos:R:3:forces:R:3 energy=-6.488345066186469 pbc="F F F"
O        0.00000000       0.00000000       0.00000000       0.00000000       0.00000000       0.20718230
O        0.00000000       0.00000000       4.41272727       0.00000000       0.00000000      -0.20718230
2
Properties=species:S:1:pos:R:3:forces:R:3 energy=-6.47666325366889 pbc="F F F"
O        0.00000000       0.00000000       0.00000000       0.00000000       0.00000000       0.18991357
O        0.00000000       0.00000000       4.47151515       0.00000000       0.00000000      -0.18991357
2
Properties=species:S:1:pos:R:3:forces:R:3 energy=-6.466050339945764 pbc="F F F"
O        0.00000000       0.00000000       0.00000000       0.00000000       0.00000000       0.17087995
O        0.00000000       0.00000000       4.53030303       0.00000000       0.00000000      -0.17087995
2
Properties=species:S:1:pos:R:3:forces:R:3 energy=-6.456595101022286 pbc="F F F"
O        0.00000000       0.00000000       0.00000000       0.00000000       0.00000000       0.15065326
O        0.00000000       0.00000000       4.58909091       0.00000000       0.00000000      -0.15065326
2
Properties=species:S:1:pos:R:3:forces:R:3 energy=-6.448347671027348 pbc="F F F"
O        0.00000000       0.00000000       0.00000000       0.00000000       0.00000000       0.12990159
O        0.00000000       0.00000000       4.64787879       0.00000000       0.00000000      -0.12990159
2
Properties=species:S:1:pos:R:3:forces:R:3 energy=-6.441318588291741 pbc="F F F"
O        0.00000000       0.00000000       0.00000000       0.00000000       0.00000000       0.10930864
O        0.00000000       0.00000000       4.70666667       0.00000000       0.00000000      -0.10930864
2
Properties=species:S:1:pos:R:3:forces:R:3 energy=-6.435481181761319 pbc="F F F"
O        0.00000000       0.00000000       0.00000000       0.00000000       0.00000000       0.08948013
O        0.00000000       0.00000000       4.76545455       0.00000000       0.00000000      -0.08948013
2
Properties=species:S:1:pos:R:3:forces:R:3 energy=-6.430773955974744 pbc="F F F"
O        0.00000000       0.00000000       0.00000000       0.00000000       0.00000000       0.07086162
O        0.00000000       0.00000000       4.82424242       0.00000000       0.00000000      -0.07086162
2
Properties=species:S:1:pos:R:3:forces:R:3 energy=-6.427120620748495 pbc="F F F"
O        0.00000000       0.00000000       0.00000000       0.00000000       0.00000000       0.05370803
O        0.00000000       0.00000000       4.88303030       0.00000000       0.00000000      -0.05370803
2
Properties=species:S:1:pos:R:3:forces:R:3 energy=-6.4244296143397 pbc="F F F"
O        0.00000000       0.00000000       0.00000000       0.00000000       0.00000000       0.03808589
O        0.00000000       0.00000000       4.94181818       0.00000000       0.00000000      -0.03808589
2
Properties=species:S:1:pos:R:3:forces:R:3 energy=-6.4226122261289955 pbc="F F F"
O        0.00000000       0.00000000       0.00000000       0.00000000       0.00000000       0.02399665
O        0.00000000       0.00000000       5.00060606       0.00000000       0.00000000      -0.02399665
2
Properties=species:S:1:pos:R:3:forces:R:3 energy=-6.421576876554514 pbc="F F F"
O        0.00000000       0.00000000       0.00000000       0.00000000       0.00000000       0.01148114
O        0.00000000       0.00000000       5.05939394       0.00000000       0.00000000      -0.01148114
2
Properties=species:S:1:pos:R:3:forces:R:3 energy=-6.42122816353656 pbc="F F F"
O        0.00000000       0.00000000       0.00000000       0.00000000       0.00000000       0.00070427
O        0.00000000       0.00000000       5.11818182       0.00000000       0.00000000      -0.00070427
2
Properties=species:S:1:pos:R:3:forces:R:3 energy=-6.4214568509761705 pbc="F F F"
O        0.00000000       0.00000000       0.00000000       0.00000000       0.00000000      -0.00816083
O        0.00000000       0.00000000       5.17696970       0.00000000       0.00000000       0.00816083
2
Properties=species:S:1:pos:R:3:forces:R:3 energy=-6.422150361300981 pbc="F F F"
O        0.00000000       0.00000000       0.00000000       0.00000000       0.00000000      -0.01514488
O        0.00000000       0.00000000       5.23575758       0.00000000       0.00000000       0.01514488
2
Properties=species:S:1:pos:R:3:forces:R:3 energy=-6.423206125965206 pbc="F F F"
O        0.00000000       0.00000000       0.00000000       0.00000000       0.00000000      -0.02050530
O        0.00000000       0.00000000       5.29454545       0.00000000       0.00000000       0.02050530
2
Properties=species:S:1:pos:R:3:forces:R:3 energy=-6.42453015795749 pbc="F F F"
O        0.00000000       0.00000000       0.00000000       0.00000000       0.00000000      -0.02423892
O        0.00000000       0.00000000       5.35333333       0.00000000       0.00000000       0.02423892
2
Properties=species:S:1:pos:R:3:forces:R:3 energy=-6.426014640553471 pbc="F F F"
O        0.00000000       0.00000000       0.00000000       0.00000000       0.00000000      -0.02590536
O        0.00000000       0.00000000       5.41212121       0.00000000       0.00000000       0.02590536
2
Properties=species:S:1:pos:R:3:forces:R:3 energy=-6.42754603339898 pbc="F F F"
O        0.00000000       0.00000000       0.00000000       0.00000000       0.00000000      -0.02612995
O        0.00000000       0.00000000       5.47090909       0.00000000       0.00000000       0.02612995
2
Properties=species:S:1:pos:R:3:forces:R:3 energy=-6.429100441995812 pbc="F F F"
O        0.00000000       0.00000000       0.00000000       0.00000000       0.00000000      -0.02691052
O        0.00000000       0.00000000       5.52969697       0.00000000       0.00000000       0.02691052
2
Properties=species:S:1:pos:R:3:forces:R:3 energy=-6.430712623088456 pbc="F F F"
O        0.00000000       0.00000000       0.00000000       0.00000000       0.00000000      -0.02780431
O        0.00000000       0.00000000       5.58848485       0.00000000       0.00000000       0.02780431
2
Properties=species:S:1:pos:R:3:forces:R:3 energy=-6.432370127260448 pbc="F F F"
O        0.00000000       0.00000000       0.00000000       0.00000000       0.00000000      -0.02902900
O        0.00000000       0.00000000       5.64727273       0.00000000       0.00000000       0.02902900
2
Properties=species:S:1:pos:R:3:forces:R:3 energy=-6.434217385337078 pbc="F F F"
O        0.00000000       0.00000000       0.00000000       0.00000000       0.00000000      -0.03464287
O        0.00000000       0.00000000       5.70606061       0.00000000       0.00000000       0.03464287
2
Properties=species:S:1:pos:R:3:forces:R:3 energy=-6.436480369153834 pbc="F F F"
O        0.00000000       0.00000000       0.00000000       0.00000000       0.00000000      -0.04155621
O        0.00000000       0.00000000       5.76484848       0.00000000       0.00000000       0.04155621
2
Properties=species:S:1:pos:R:3:forces:R:3 energy=-6.438913936844569 pbc="F F F"
O        0.00000000       0.00000000       0.00000000       0.00000000       0.00000000      -0.03897587
O        0.00000000       0.00000000       5.82363636       0.00000000       0.00000000       0.03897587
2
Properties=species:S:1:pos:R:3:forces:R:3 energy=-6.440793726609816 pbc="F F F"
O        0.00000000       0.00000000       0.00000000       0.00000000       0.00000000      -0.02373572
O        0.00000000       0.00000000       5.88242424       0.00000000       0.00000000       0.02373572
2
Properties=species:S:1:pos:R:3:forces:R:3 energy=-6.441669083579528 pbc="F F F"
O        0.00000000       0.00000000       0.00000000       0.00000000       0.00000000      -0.00675536
O        0.00000000       0.00000000       5.94121212       0.00000000       0.00000000       0.00675536
2
Properties=species:S:1:pos:R:3:forces:R:3 energy=-6.441794119601782 pbc="F F F"
O        0.00000000       0.00000000       0.00000000       0.00000000       0.00000000       0.00018719
O        0.00000000       0.00000000       6.00000000       0.00000000       0.00000000      -0.00018719
