2
Properties=species:S:1:pos:R:3:forces:R:3 energy=4899.717684335832 pbc="F F F"
Pd       0.00000000       0.00000000       0.00000000       0.00000000       0.00000000 -126537.62500000
Pd       0.00000000       0.00000000       0.18000000       0.00000000       0.00000000  126537.62500000
2
Properties=species:S:1:pos:R:3:forces:R:3 energy=439.39322144520673 pbc="F F F"
Pd       0.00000000       0.00000000       0.00000000       0.00000000       0.00000000  -42173.37500000
Pd       0.00000000       0.00000000       0.23878788       0.00000000       0.00000000   42173.37500000
2
Properties=species:S:1:pos:R:3:forces:R:3 energy=-1085.7133459376057 pbc="F F F"
Pd       0.00000000       0.00000000       0.00000000       0.00000000       0.00000000  -14018.33984375
Pd       0.00000000       0.00000000       0.29757576       0.00000000       0.00000000   14018.33984375
2
Properties=species:S:1:pos:R:3:forces:R:3 energy=-1499.2987951563557 pbc="F F F"
Pd       0.00000000       0.00000000       0.00000000       0.00000000       0.00000000   -1457.42651367
Pd       0.00000000       0.00000000       0.35636364       0.00000000       0.00000000    1457.42651367
2
Properties=species:S:1:pos:R:3:forces:R:3 energy=-1369.6757482797718 pbc="F F F"
Pd       0.00000000       0.00000000       0.00000000       0.00000000       0.00000000    5140.94628906
Pd       0.00000000       0.00000000       0.41515152       0.00000000       0.00000000   -5140.94628906
2
Properties=species:S:1:pos:R:3:forces:R:3 energy=-978.3204626336567 pbc="F F F"
Pd       0.00000000       0.00000000       0.00000000       0.00000000       0.00000000    7322.00000000
Pd       0.00000000       0.00000000       0.47393939       0.00000000       0.00000000   -7322.00000000
2
Properties=species:S:1:pos:R:3:forces:R:3 energy=-561.9909948570514 pbc="F F F"
Pd       0.00000000       0.00000000       0.00000000       0.00000000       0.00000000    6298.30859375
Pd       0.00000000       0.00000000       0.53272727       0.00000000       0.00000000   -6298.30859375
2
Properties=species:S:1:pos:R:3:forces:R:3 energy=-279.33913938354965 pbc="F F F"
Pd       0.00000000       0.00000000       0.00000000       0.00000000       0.00000000    3222.38208008
Pd       0.00000000       0.00000000       0.59151515       0.00000000       0.00000000   -3222.38208008
2
Properties=species:S:1:pos:R:3:forces:R:3 energy=-163.3376745318801 pbc="F F F"
Pd       0.00000000       0.00000000       0.00000000       0.00000000       0.00000000    1066.01904297
Pd       0.00000000       0.00000000       0.65030303       0.00000000       0.00000000   -1066.01904297
2
Properties=species:S:1:pos:R:3:forces:R:3 energy=-126.80847682475381 pbc="F F F"
Pd       0.00000000       0.00000000       0.00000000       0.00000000       0.00000000     311.81097412
Pd       0.00000000       0.00000000       0.70909091       0.00000000       0.00000000    -311.81097412
2
Properties=species:S:1:pos:R:3:forces:R:3 energy=-123.98076379146767 pbc="F F F"
Pd       0.00000000       0.00000000       0.00000000       0.00000000       0.00000000     149.04312134
Pd       0.00000000       0.00000000       0.76787879       0.00000000       0.00000000    -149.04312134
2
Properties=species:S:1:pos:R:3:forces:R:3 energy=-100.53307852046609 pbc="F F F"
Pd       0.00000000       0.00000000       0.00000000       0.00000000       0.00000000     591.17919922
Pd       0.00000000       0.00000000       0.82666667       0.00000000       0.00000000    -591.17919922
2
Properties=species:S:1:pos:R:3:forces:R:3 energy=-64.58685807895931 pbc="F F F"
Pd       0.00000000       0.00000000       0.00000000       0.00000000       0.00000000     593.81707764
Pd       0.00000000       0.00000000       0.88545455       0.00000000       0.00000000    -593.81707764
2
Properties=species:S:1:pos:R:3:forces:R:3 energy=-32.89565013461242 pbc="F F F"
Pd       0.00000000       0.00000000       0.00000000       0.00000000       0.00000000     472.16781616
Pd       0.00000000       0.00000000       0.94424242       0.00000000       0.00000000    -472.16781616
2
Properties=species:S:1:pos:R:3:forces:R:3 energy=-10.018696928832952 pbc="F F F"
Pd       0.00000000       0.00000000       0.00000000       0.00000000       0.00000000     293.36596680
Pd       0.00000000       0.00000000       1.00303030       0.00000000       0.00000000    -293.36596680
2
Properties=species:S:1:pos:R:3:forces:R:3 energy=1.8375157972156642 pbc="F F F"
Pd       0.00000000       0.00000000       0.00000000       0.00000000       0.00000000     129.10113525
Pd       0.00000000       0.00000000       1.06181818       0.00000000       0.00000000    -129.10113525
2
Properties=species:S:1:pos:R:3:forces:R:3 energy=6.574549786137668 pbc="F F F"
Pd       0.00000000       0.00000000       0.00000000       0.00000000       0.00000000      40.61475754
Pd       0.00000000       0.00000000       1.12060606       0.00000000       0.00000000     -40.61475754
2
Properties=species:S:1:pos:R:3:forces:R:3 energy=7.0890534552109035 pbc="F F F"
Pd       0.00000000       0.00000000       0.00000000       0.00000000       0.00000000     -51.53834915
Pd       0.00000000       0.00000000       1.17939394       0.00000000       0.00000000      51.53834915
2
Properties=species:S:1:pos:R:3:forces:R:3 energy=0.20094258383929994 pbc="F F F"
Pd       0.00000000       0.00000000       0.00000000       0.00000000       0.00000000    -139.37158203
Pd       0.00000000       0.00000000       1.23818182       0.00000000       0.00000000     139.37158203
2
Properties=species:S:1:pos:R:3:forces:R:3 energy=-7.6883564992062805 pbc="F F F"
Pd       0.00000000       0.00000000       0.00000000       0.00000000       0.00000000    -125.51325989
Pd       0.00000000       0.00000000       1.29696970       0.00000000       0.00000000     125.51325989
2
Properties=species:S:1:pos:R:3:forces:R:3 energy=-14.222263045417709 pbc="F F F"
Pd       0.00000000       0.00000000       0.00000000       0.00000000       0.00000000     -96.33350372
Pd       0.00000000       0.00000000       1.35575758       0.00000000       0.00000000      96.33350372
2
Properties=species:S:1:pos:R:3:forces:R:3 energy=-19.16776771087239 pbc="F F F"
Pd       0.00000000       0.00000000       0.00000000       0.00000000       0.00000000     -73.46344757
Pd       0.00000000       0.00000000       1.41454545       0.00000000       0.00000000      73.46344757
2
Properties=species:S:1:pos:R:3:forces:R:3 energy=-22.98999267649707 pbc="F F F"
Pd       0.00000000       0.00000000       0.00000000       0.00000000       0.00000000     -57.42319870
Pd       0.00000000       0.00000000       1.47333333       0.00000000       0.00000000      57.42319870
2
Properties=species:S:1:pos:R:3:forces:R:3 energy=-26.01239758179109 pbc="F F F"
Pd       0.00000000       0.00000000       0.00000000       0.00000000       0.00000000     -46.15750885
Pd       0.00000000       0.00000000       1.53212121       0.00000000       0.00000000      46.15750885
2
Properties=species:S:1:pos:R:3:forces:R:3 energy=-28.49502841537241 pbc="F F F"
Pd       0.00000000       0.00000000       0.00000000       0.00000000       0.00000000     -38.82987213
Pd       0.00000000       0.00000000       1.59090909       0.00000000       0.00000000      38.82987213
2
Properties=species:S:1:pos:R:3:forces:R:3 energy=-30.621591474273604 pbc="F F F"
Pd       0.00000000       0.00000000       0.00000000       0.00000000       0.00000000     -33.74707031
Pd       0.00000000       0.00000000       1.64969697       0.00000000       0.00000000      33.74707031
2
Properties=species:S:1:pos:R:3:forces:R:3 energy=-32.47724042136192 pbc="F F F"
Pd       0.00000000       0.00000000       0.00000000       0.00000000       0.00000000     -29.42634583
Pd       0.00000000       0.00000000       1.70848485       0.00000000       0.00000000      29.42634583
2
Properties=species:S:1:pos:R:3:forces:R:3 energy=-34.08247181273903 pbc="F F F"
Pd       0.00000000       0.00000000       0.00000000       0.00000000       0.00000000     -25.18568993
Pd       0.00000000       0.00000000       1.76727273       0.00000000       0.00000000      25.18568993
2
Properties=species:S:1:pos:R:3:forces:R:3 energy=-35.440358817876195 pbc="F F F"
Pd       0.00000000       0.00000000       0.00000000       0.00000000       0.00000000     -21.04536629
Pd       0.00000000       0.00000000       1.82606061       0.00000000       0.00000000      21.04536629
2
Properties=species:S:1:pos:R:3:forces:R:3 energy=-36.5625981451903 pbc="F F F"
Pd       0.00000000       0.00000000       0.00000000       0.00000000       0.00000000     -17.19012070
Pd       0.00000000       0.00000000       1.88484848       0.00000000       0.00000000      17.19012070
2
Properties=species:S:1:pos:R:3:forces:R:3 energy=-37.468512801235875 pbc="F F F"
Pd       0.00000000       0.00000000       0.00000000       0.00000000       0.00000000     -13.69276714
Pd       0.00000000       0.00000000       1.94363636       0.00000000       0.00000000      13.69276714
2
Properties=species:S:1:pos:R:3:forces:R:3 energy=-38.18051312364967 pbc="F F F"
Pd       0.00000000       0.00000000       0.00000000       0.00000000       0.00000000     -10.60249901
Pd       0.00000000       0.00000000       2.00242424       0.00000000       0.00000000      10.60249901
2
Properties=species:S:1:pos:R:3:forces:R:3 energy=-38.72389537118438 pbc="F F F"
Pd       0.00000000       0.00000000       0.00000000       0.00000000       0.00000000      -7.95819139
Pd       0.00000000       0.00000000       2.06121212       0.00000000       0.00000000       7.95819139
2
Properties=species:S:1:pos:R:3:forces:R:3 energy=-39.12453122648186 pbc="F F F"
Pd       0.00000000       0.00000000       0.00000000       0.00000000       0.00000000      -5.73767090
Pd       0.00000000       0.00000000       2.12000000       0.00000000       0.00000000       5.73767090
2
Properties=species:S:1:pos:R:3:forces:R:3 energy=-39.405611838387436 pbc="F F F"
Pd       0.00000000       0.00000000       0.00000000       0.00000000       0.00000000      -3.88020682
Pd       0.00000000       0.00000000       2.17878788       0.00000000       0.00000000       3.88020682
2
Properties=species:S:1:pos:R:3:forces:R:3 energy=-39.5868688865498 pbc="F F F"
Pd       0.00000000       0.00000000       0.00000000       0.00000000       0.00000000      -2.33557010
Pd       0.00000000       0.00000000       2.23757576       0.00000000       0.00000000       2.33557010
2
Properties=species:S:1:pos:R:3:forces:R:3 energy=-39.68581149779399 pbc="F F F"
Pd       0.00000000       0.00000000       0.00000000       0.00000000       0.00000000      -1.07681680
Pd       0.00000000       0.00000000       2.29636364       0.00000000       0.00000000       1.07681680
2
Properties=species:S:1:pos:R:3:forces:R:3 energy=-39.71872178025057 pbc="F F F"
Pd       0.00000000       0.00000000       0.00000000       0.00000000       0.00000000      -0.08536613
Pd       0.00000000       0.00000000       2.35515152       0.00000000       0.00000000       0.08536613
2
Properties=species:S:1:pos:R:3:forces:R:3 energy=-39.70052637603539 pbc="F F F"
Pd       0.00000000       0.00000000       0.00000000       0.00000000       0.00000000       0.66809887
Pd       0.00000000       0.00000000       2.41393939       0.00000000       0.00000000      -0.66809887
2
Properties=species:S:1:pos:R:3:forces:R:3 energy=-39.64395950457084 pbc="F F F"
Pd       0.00000000       0.00000000       0.00000000       0.00000000       0.00000000       1.22805107
Pd       0.00000000       0.00000000       2.47272727       0.00000000       0.00000000      -1.22805107
2
Properties=species:S:1:pos:R:3:forces:R:3 energy=-39.55908343935446 pbc="F F F"
Pd       0.00000000       0.00000000       0.00000000       0.00000000       0.00000000       1.63672912
Pd       0.00000000       0.00000000       2.53151515       0.00000000       0.00000000      -1.63672912
2
Properties=species:S:1:pos:R:3:forces:R:3 energy=-39.45408424370889 pbc="F F F"
Pd       0.00000000       0.00000000       0.00000000       0.00000000       0.00000000       1.91380215
Pd       0.00000000       0.00000000       2.59030303       0.00000000       0.00000000      -1.91380215
2
Properties=species:S:1:pos:R:3:forces:R:3 energy=-39.33671638624431 pbc="F F F"
Pd       0.00000000       0.00000000       0.00000000       0.00000000       0.00000000       2.05535316
Pd       0.00000000       0.00000000       2.64909091       0.00000000       0.00000000      -2.05535316
2
Properties=species:S:1:pos:R:3:forces:R:3 energy=-39.21528926343981 pbc="F F F"
Pd       0.00000000       0.00000000       0.00000000       0.00000000       0.00000000       2.05141854
Pd       0.00000000       0.00000000       2.70787879       0.00000000       0.00000000      -2.05141854
2
Properties=species:S:1:pos:R:3:forces:R:3 energy=-39.09816859317971 pbc="F F F"
Pd       0.00000000       0.00000000       0.00000000       0.00000000       0.00000000       1.91339076
Pd       0.00000000       0.00000000       2.76666667       0.00000000       0.00000000      -1.91339076
2
Properties=species:S:1:pos:R:3:forces:R:3 energy=-38.99211577425229 pbc="F F F"
Pd       0.00000000       0.00000000       0.00000000       0.00000000       0.00000000       1.68428814
Pd       0.00000000       0.00000000       2.82545455       0.00000000       0.00000000      -1.68428814
2
Properties=species:S:1:pos:R:3:forces:R:3 energy=-38.90072063164811 pbc="F F F"
Pd       0.00000000       0.00000000       0.00000000       0.00000000       0.00000000       1.42562413
Pd       0.00000000       0.00000000       2.88424242       0.00000000       0.00000000      -1.42562413
2
Properties=species:S:1:pos:R:3:forces:R:3 energy=-38.823840795504466 pbc="F F F"
Pd       0.00000000       0.00000000       0.00000000       0.00000000       0.00000000       1.19997680
Pd       0.00000000       0.00000000       2.94303030       0.00000000       0.00000000      -1.19997680
2
Properties=species:S:1:pos:R:3:forces:R:3 energy=-38.75805548590513 pbc="F F F"
Pd       0.00000000       0.00000000       0.00000000       0.00000000       0.00000000       1.05370808
Pd       0.00000000       0.00000000       3.00181818       0.00000000       0.00000000      -1.05370808
2
Properties=species:S:1:pos:R:3:forces:R:3 energy=-38.69804216617575 pbc="F F F"
Pd       0.00000000       0.00000000       0.00000000       0.00000000       0.00000000       1.00374401
Pd       0.00000000       0.00000000       3.06060606       0.00000000       0.00000000      -1.00374401
2
Properties=species:S:1:pos:R:3:forces:R:3 energy=-38.638412154788575 pbc="F F F"
Pd       0.00000000       0.00000000       0.00000000       0.00000000       0.00000000       1.03603768
Pd       0.00000000       0.00000000       3.11939394       0.00000000       0.00000000      -1.03603768
2
Properties=species:S:1:pos:R:3:forces:R:3 energy=-38.57528994106928 pbc="F F F"
Pd       0.00000000       0.00000000       0.00000000       0.00000000       0.00000000       1.11601210
Pd       0.00000000       0.00000000       3.17818182       0.00000000       0.00000000      -1.11601210
2
Properties=species:S:1:pos:R:3:forces:R:3 energy=-38.50705018838218 pbc="F F F"
Pd       0.00000000       0.00000000       0.00000000       0.00000000       0.00000000       1.20388329
Pd       0.00000000       0.00000000       3.23696970       0.00000000       0.00000000      -1.20388329
2
Properties=species:S:1:pos:R:3:forces:R:3 energy=-38.43422662647488 pbc="F F F"
Pd       0.00000000       0.00000000       0.00000000       0.00000000       0.00000000       1.26761127
Pd       0.00000000       0.00000000       3.29575758       0.00000000       0.00000000      -1.26761127
2
Properties=species:S:1:pos:R:3:forces:R:3 energy=-38.3588368310553 pbc="F F F"
Pd       0.00000000       0.00000000       0.00000000       0.00000000       0.00000000       1.28962743
Pd       0.00000000       0.00000000       3.35454545       0.00000000       0.00000000      -1.28962743
2
Properties=species:S:1:pos:R:3:forces:R:3 energy=-38.2834819536531 pbc="F F F"
Pd       0.00000000       0.00000000       0.00000000       0.00000000       0.00000000       1.26684225
Pd       0.00000000       0.00000000       3.41333333       0.00000000       0.00000000      -1.26684225
2
Properties=species:S:1:pos:R:3:forces:R:3 energy=-38.21063351103125 pbc="F F F"
Pd       0.00000000       0.00000000       0.00000000       0.00000000       0.00000000       1.20604765
Pd       0.00000000       0.00000000       3.47212121       0.00000000       0.00000000      -1.20604765
2
Properties=species:S:1:pos:R:3:forces:R:3 energy=-38.142209838164064 pbc="F F F"
Pd       0.00000000       0.00000000       0.00000000       0.00000000       0.00000000       1.11826003
Pd       0.00000000       0.00000000       3.53090909       0.00000000       0.00000000      -1.11826003
2
Properties=species:S:1:pos:R:3:forces:R:3 energy=-38.07945785796452 pbc="F F F"
Pd       0.00000000       0.00000000       0.00000000       0.00000000       0.00000000       1.01479518
Pd       0.00000000       0.00000000       3.58969697       0.00000000       0.00000000      -1.01479518
2
Properties=species:S:1:pos:R:3:forces:R:3 energy=-38.02300274045691 pbc="F F F"
Pd       0.00000000       0.00000000       0.00000000       0.00000000       0.00000000       0.90563625
Pd       0.00000000       0.00000000       3.64848485       0.00000000       0.00000000      -0.90563625
2
Properties=species:S:1:pos:R:3:forces:R:3 energy=-37.972927955982506 pbc="F F F"
Pd       0.00000000       0.00000000       0.00000000       0.00000000       0.00000000       0.79904944
Pd       0.00000000       0.00000000       3.70727273       0.00000000       0.00000000      -0.79904944
2
Properties=species:S:1:pos:R:3:forces:R:3 energy=-37.92887829895224 pbc="F F F"
Pd       0.00000000       0.00000000       0.00000000       0.00000000       0.00000000       0.70145416
Pd       0.00000000       0.00000000       3.76606061       0.00000000       0.00000000      -0.70145416
2
Properties=species:S:1:pos:R:3:forces:R:3 energy=-37.890189535284655 pbc="F F F"
Pd       0.00000000       0.00000000       0.00000000       0.00000000       0.00000000       0.61720383
Pd       0.00000000       0.00000000       3.82484848       0.00000000       0.00000000      -0.61720383
2
Properties=species:S:1:pos:R:3:forces:R:3 energy=-37.85600299379544 pbc="F F F"
Pd       0.00000000       0.00000000       0.00000000       0.00000000       0.00000000       0.54842013
Pd       0.00000000       0.00000000       3.88363636       0.00000000       0.00000000      -0.54842013
2
Properties=species:S:1:pos:R:3:forces:R:3 energy=-37.82540270998139 pbc="F F F"
Pd       0.00000000       0.00000000       0.00000000       0.00000000       0.00000000       0.49510780
Pd       0.00000000       0.00000000       3.94242424       0.00000000       0.00000000      -0.49510780
2
Properties=species:S:1:pos:R:3:forces:R:3 energy=-37.79752240860624 pbc="F F F"
Pd       0.00000000       0.00000000       0.00000000       0.00000000       0.00000000       0.45552093
Pd       0.00000000       0.00000000       4.00121212       0.00000000       0.00000000      -0.45552093
2
Properties=species:S:1:pos:R:3:forces:R:3 energy=-37.77163316412612 pbc="F F F"
Pd       0.00000000       0.00000000       0.00000000       0.00000000       0.00000000       0.42673117
Pd       0.00000000       0.00000000       4.06000000       0.00000000       0.00000000      -0.42673117
2
Properties=species:S:1:pos:R:3:forces:R:3 energy=-37.747204439013665 pbc="F F F"
Pd       0.00000000       0.00000000       0.00000000       0.00000000       0.00000000       0.40526411
Pd       0.00000000       0.00000000       4.11878788       0.00000000       0.00000000      -0.40526411
2
Properties=species:S:1:pos:R:3:forces:R:3 energy=-37.72390795547602 pbc="F F F"
Pd       0.00000000       0.00000000       0.00000000       0.00000000       0.00000000       0.38764820
Pd       0.00000000       0.00000000       4.17757576       0.00000000       0.00000000      -0.38764820
2
Properties=species:S:1:pos:R:3:forces:R:3 energy=-37.70161000270393 pbc="F F F"
Pd       0.00000000       0.00000000       0.00000000       0.00000000       0.00000000       0.37083802
Pd       0.00000000       0.00000000       4.23636364       0.00000000       0.00000000      -0.37083802
2
Properties=species:S:1:pos:R:3:forces:R:3 energy=-37.6803371917114 pbc="F F F"
Pd       0.00000000       0.00000000       0.00000000       0.00000000       0.00000000       0.35246989
Pd       0.00000000       0.00000000       4.29515152       0.00000000       0.00000000      -0.35246989
2
Properties=species:S:1:pos:R:3:forces:R:3 energy=-37.660230636202954 pbc="F F F"
Pd       0.00000000       0.00000000       0.00000000       0.00000000       0.00000000       0.33098337
Pd       0.00000000       0.00000000       4.35393939       0.00000000       0.00000000      -0.33098337
2
Properties=species:S:1:pos:R:3:forces:R:3 energy=-37.641500184125974 pbc="F F F"
Pd       0.00000000       0.00000000       0.00000000       0.00000000       0.00000000       0.30562249
Pd       0.00000000       0.00000000       4.41272727       0.00000000       0.00000000      -0.30562249
2
Properties=species:S:1:pos:R:3:forces:R:3 energy=-37.62437484719711 pbc="F F F"
Pd       0.00000000       0.00000000       0.00000000       0.00000000       0.00000000       0.27637619
Pd       0.00000000       0.00000000       4.47151515       0.00000000       0.00000000      -0.27637619
2
Properties=species:S:1:pos:R:3:forces:R:3 energy=-37.60906848129816 pbc="F F F"
Pd       0.00000000       0.00000000       0.00000000       0.00000000       0.00000000       0.24384737
Pd       0.00000000       0.00000000       4.53030303       0.00000000       0.00000000      -0.24384737
2
Properties=species:S:1:pos:R:3:forces:R:3 energy=-37.59574923563583 pbc="F F F"
Pd       0.00000000       0.00000000       0.00000000       0.00000000       0.00000000       0.20907988
Pd       0.00000000       0.00000000       4.58909091       0.00000000       0.00000000      -0.20907988
2
Properties=species:S:1:pos:R:3:forces:R:3 energy=-37.58450526164802 pbc="F F F"
Pd       0.00000000       0.00000000       0.00000000       0.00000000       0.00000000       0.17338188
Pd       0.00000000       0.00000000       4.64787879       0.00000000       0.00000000      -0.17338188
2
Properties=species:S:1:pos:R:3:forces:R:3 energy=-37.5753523202236 pbc="F F F"
Pd       0.00000000       0.00000000       0.00000000       0.00000000       0.00000000       0.13812116
Pd       0.00000000       0.00000000       4.70666667       0.00000000       0.00000000      -0.13812116
2
Properties=species:S:1:pos:R:3:forces:R:3 energy=-37.56822998442817 pbc="F F F"
Pd       0.00000000       0.00000000       0.00000000       0.00000000       0.00000000       0.10456356
Pd       0.00000000       0.00000000       4.76545455       0.00000000       0.00000000      -0.10456356
2
Properties=species:S:1:pos:R:3:forces:R:3 energy=-37.563005428858766 pbc="F F F"
Pd       0.00000000       0.00000000       0.00000000       0.00000000       0.00000000       0.07373159
Pd       0.00000000       0.00000000       4.82424242       0.00000000       0.00000000      -0.07373159
2
Properties=species:S:1:pos:R:3:forces:R:3 energy=-37.559496340002156 pbc="F F F"
Pd       0.00000000       0.00000000       0.00000000       0.00000000       0.00000000       0.04636806
Pd       0.00000000       0.00000000       4.88303030       0.00000000       0.00000000      -0.04636806
2
Properties=species:S:1:pos:R:3:forces:R:3 energy=-37.55747851395121 pbc="F F F"
Pd       0.00000000       0.00000000       0.00000000       0.00000000       0.00000000       0.02292085
Pd       0.00000000       0.00000000       4.94181818       0.00000000       0.00000000      -0.02292085
2
Properties=species:S:1:pos:R:3:forces:R:3 energy=-37.55671637715082 pbc="F F F"
Pd       0.00000000       0.00000000       0.00000000       0.00000000       0.00000000       0.00365288
Pd       0.00000000       0.00000000       5.00060606       0.00000000       0.00000000      -0.00365288
2
Properties=species:S:1:pos:R:3:forces:R:3 energy=-37.55696298639789 pbc="F F F"
Pd       0.00000000       0.00000000       0.00000000       0.00000000       0.00000000      -0.01134101
Pd       0.00000000       0.00000000       5.05939394       0.00000000       0.00000000       0.01134101
2
Properties=species:S:1:pos:R:3:forces:R:3 energy=-37.55796762814158 pbc="F F F"
Pd       0.00000000       0.00000000       0.00000000       0.00000000       0.00000000      -0.02215106
Pd       0.00000000       0.00000000       5.11818182       0.00000000       0.00000000       0.02215106
2
Properties=species:S:1:pos:R:3:forces:R:3 energy=-37.559494885633974 pbc="F F F"
Pd       0.00000000       0.00000000       0.00000000       0.00000000       0.00000000      -0.02924125
Pd       0.00000000       0.00000000       5.17696970       0.00000000       0.00000000       0.02924125
2
Properties=species:S:1:pos:R:3:forces:R:3 energy=-37.56135515571624 pbc="F F F"
Pd       0.00000000       0.00000000       0.00000000       0.00000000       0.00000000      -0.03370342
Pd       0.00000000       0.00000000       5.23575758       0.00000000       0.00000000       0.03370342
2
Properties=species:S:1:pos:R:3:forces:R:3 energy=-37.563442756985516 pbc="F F F"
Pd       0.00000000       0.00000000       0.00000000       0.00000000       0.00000000      -0.03734864
Pd       0.00000000       0.00000000       5.29454545       0.00000000       0.00000000       0.03734864
2
Properties=species:S:1:pos:R:3:forces:R:3 energy=-37.56576264217915 pbc="F F F"
Pd       0.00000000       0.00000000       0.00000000       0.00000000       0.00000000      -0.04165174
Pd       0.00000000       0.00000000       5.35333333       0.00000000       0.00000000       0.04165174
2
Properties=species:S:1:pos:R:3:forces:R:3 energy=-37.56830830885536 pbc="F F F"
Pd       0.00000000       0.00000000       0.00000000       0.00000000       0.00000000      -0.04411134
Pd       0.00000000       0.00000000       5.41212121       0.00000000       0.00000000       0.04411134
2
Properties=species:S:1:pos:R:3:forces:R:3 energy=-37.57074514546601 pbc="F F F"
Pd       0.00000000       0.00000000       0.00000000       0.00000000       0.00000000      -0.03649266
Pd       0.00000000       0.00000000       5.47090909       0.00000000       0.00000000       0.03649266
2
Properties=species:S:1:pos:R:3:forces:R:3 energy=-37.572387558220264 pbc="F F F"
Pd       0.00000000       0.00000000       0.00000000       0.00000000       0.00000000      -0.01882615
Pd       0.00000000       0.00000000       5.52969697       0.00000000       0.00000000       0.01882615
2
Properties=species:S:1:pos:R:3:forces:R:3 energy=-37.573076329280845 pbc="F F F"
Pd       0.00000000       0.00000000       0.00000000       0.00000000       0.00000000      -0.00659742
Pd       0.00000000       0.00000000       5.58848485       0.00000000       0.00000000       0.00659742
2
Properties=species:S:1:pos:R:3:forces:R:3 energy=-37.57333881979403 pbc="F F F"
Pd       0.00000000       0.00000000       0.00000000       0.00000000       0.00000000      -0.00280277
Pd       0.00000000       0.00000000       5.64727273       0.00000000       0.00000000       0.00280277
2
Properties=species:S:1:pos:R:3:forces:R:3 energy=-37.57328270293089 pbc="F F F"
Pd       0.00000000       0.00000000       0.00000000       0.00000000       0.00000000       0.00711305
Pd       0.00000000       0.00000000       5.70606061       0.00000000       0.00000000      -0.00711305
2
Properties=species:S:1:pos:R:3:forces:R:3 energy=-37.572233566063105 pbc="F F F"
Pd       0.00000000       0.00000000       0.00000000       0.00000000       0.00000000       0.02946250
Pd       0.00000000       0.00000000       5.76484848       0.00000000       0.00000000      -0.02946250
2
Properties=species:S:1:pos:R:3:forces:R:3 energy=-37.57001283434701 pbc="F F F"
Pd       0.00000000       0.00000000       0.00000000       0.00000000       0.00000000       0.04229763
Pd       0.00000000       0.00000000       5.82363636       0.00000000       0.00000000      -0.04229763
2
Properties=species:S:1:pos:R:3:forces:R:3 energy=-37.56775408821995 pbc="F F F"
Pd       0.00000000       0.00000000       0.00000000       0.00000000       0.00000000       0.03164403
Pd       0.00000000       0.00000000       5.88242424       0.00000000       0.00000000      -0.03164403
2
Properties=species:S:1:pos:R:3:forces:R:3 energy=-37.56644206840164 pbc="F F F"
Pd       0.00000000       0.00000000       0.00000000       0.00000000       0.00000000       0.01346441
Pd       0.00000000       0.00000000       5.94121212       0.00000000       0.00000000      -0.01346441
2
Properties=species:S:1:pos:R:3:forces:R:3 energy=-37.565958974651274 pbc="F F F"
Pd       0.00000000       0.00000000       0.00000000       0.00000000       0.00000000       0.00548033
Pd       0.00000000       0.00000000       6.00000000       0.00000000       0.00000000      -0.00548033
