2
Properties=species:S:1:pos:R:3:forces:R:3 energy=5670.256680973774 pbc="F F F"
Rb       0.00000000       0.00000000       0.00000000       0.00000000       0.00000000  -91163.27343750
Rb       0.00000000       0.00000000       0.18000000       0.00000000       0.00000000   91163.27343750
2
Properties=species:S:1:pos:R:3:forces:R:3 energy=2394.574063786274 pbc="F F F"
Rb       0.00000000       0.00000000       0.00000000       0.00000000       0.00000000  -32222.83593750
Rb       0.00000000       0.00000000       0.23878788       0.00000000       0.00000000   32222.83593750
2
Properties=species:S:1:pos:R:3:forces:R:3 energy=1146.9904456222116 pbc="F F F"
Rb       0.00000000       0.00000000       0.00000000       0.00000000       0.00000000  -13375.54882812
Rb       0.00000000       0.00000000       0.29757576       0.00000000       0.00000000   13375.54882812
2
Properties=species:S:1:pos:R:3:forces:R:3 energy=605.7427039229927 pbc="F F F"
Rb       0.00000000       0.00000000       0.00000000       0.00000000       0.00000000   -6083.70214844
Rb       0.00000000       0.00000000       0.35636364       0.00000000       0.00000000    6083.70214844
2
Properties=species:S:1:pos:R:3:forces:R:3 energy=354.44878912807087 pbc="F F F"
Rb       0.00000000       0.00000000       0.00000000       0.00000000       0.00000000   -2870.18090820
Rb       0.00000000       0.00000000       0.41515152       0.00000000       0.00000000    2870.18090820
2
Properties=species:S:1:pos:R:3:forces:R:3 energy=236.67065192103965 pbc="F F F"
Rb       0.00000000       0.00000000       0.00000000       0.00000000       0.00000000   -1313.38623047
Rb       0.00000000       0.00000000       0.47393939       0.00000000       0.00000000    1313.38623047
2
Properties=species:S:1:pos:R:3:forces:R:3 energy=185.4203925216256 pbc="F F F"
Rb       0.00000000       0.00000000       0.00000000       0.00000000       0.00000000    -518.33062744
Rb       0.00000000       0.00000000       0.53272727       0.00000000       0.00000000     518.33062744
2
Properties=species:S:1:pos:R:3:forces:R:3 energy=167.76466132084968 pbc="F F F"
Rb       0.00000000       0.00000000       0.00000000       0.00000000       0.00000000    -135.44628906
Rb       0.00000000       0.00000000       0.59151515       0.00000000       0.00000000     135.44628906
2
Properties=species:S:1:pos:R:3:forces:R:3 energy=163.3009009452691 pbc="F F F"
Rb       0.00000000       0.00000000       0.00000000       0.00000000       0.00000000     -79.76411438
Rb       0.00000000       0.00000000       0.65030303       0.00000000       0.00000000      79.76411438
2
Properties=species:S:1:pos:R:3:forces:R:3 energy=156.35062933961575 pbc="F F F"
Rb       0.00000000       0.00000000       0.00000000       0.00000000       0.00000000    -178.28837585
Rb       0.00000000       0.00000000       0.70909091       0.00000000       0.00000000     178.28837585
2
Properties=species:S:1:pos:R:3:forces:R:3 energy=140.24770880818113 pbc="F F F"
Rb       0.00000000       0.00000000       0.00000000       0.00000000       0.00000000    -376.37356567
Rb       0.00000000       0.00000000       0.76787879       0.00000000       0.00000000     376.37356567
2
Properties=species:S:1:pos:R:3:forces:R:3 energy=127.6646399621088 pbc="F F F"
Rb       0.00000000       0.00000000       0.00000000       0.00000000       0.00000000    -717.09692383
Rb       0.00000000       0.00000000       0.82666667       0.00000000       0.00000000     717.09692383
2
Properties=species:S:1:pos:R:3:forces:R:3 energy=80.37943793732552 pbc="F F F"
Rb       0.00000000       0.00000000       0.00000000       0.00000000       0.00000000    -776.34460449
Rb       0.00000000       0.00000000       0.88545455       0.00000000       0.00000000     776.34460449
2
Properties=species:S:1:pos:R:3:forces:R:3 energy=43.32190849103045 pbc="F F F"
Rb       0.00000000       0.00000000       0.00000000       0.00000000       0.00000000    -501.10467529
Rb       0.00000000       0.00000000       0.94424242       0.00000000       0.00000000     501.10467529
2
Properties=species:S:1:pos:R:3:forces:R:3 energy=20.89742424166456 pbc="F F F"
Rb       0.00000000       0.00000000       0.00000000       0.00000000       0.00000000    -266.27127075
Rb       0.00000000       0.00000000       1.00303030       0.00000000       0.00000000     266.27127075
2
Properties=species:S:1:pos:R:3:forces:R:3 energy=9.347871329331802 pbc="F F F"
Rb       0.00000000       0.00000000       0.00000000       0.00000000       0.00000000    -128.00959778
Rb       0.00000000       0.00000000       1.06181818       0.00000000       0.00000000     128.00959778
2
Properties=species:S:1:pos:R:3:forces:R:3 energy=4.5927768078651825 pbc="F F F"
Rb       0.00000000       0.00000000       0.00000000       0.00000000       0.00000000     -48.82509995
Rb       0.00000000       0.00000000       1.12060606       0.00000000       0.00000000      48.82509995
2
Properties=species:S:1:pos:R:3:forces:R:3 energy=1.7973018108691559 pbc="F F F"
Rb       0.00000000       0.00000000       0.00000000       0.00000000       0.00000000     -50.16472244
Rb       0.00000000       0.00000000       1.17939394       0.00000000       0.00000000      50.16472244
2
Properties=species:S:1:pos:R:3:forces:R:3 energy=-1.1682457396889745 pbc="F F F"
Rb       0.00000000       0.00000000       0.00000000       0.00000000       0.00000000     -50.02624130
Rb       0.00000000       0.00000000       1.23818182       0.00000000       0.00000000      50.02624130
2
Properties=species:S:1:pos:R:3:forces:R:3 energy=-3.997644833924516 pbc="F F F"
Rb       0.00000000       0.00000000       0.00000000       0.00000000       0.00000000     -45.95225525
Rb       0.00000000       0.00000000       1.29696970       0.00000000       0.00000000      45.95225525
2
Properties=species:S:1:pos:R:3:forces:R:3 energy=-6.561487588751061 pbc="F F F"
Rb       0.00000000       0.00000000       0.00000000       0.00000000       0.00000000     -40.91397095
Rb       0.00000000       0.00000000       1.35575758       0.00000000       0.00000000      40.91397095
2
Properties=species:S:1:pos:R:3:forces:R:3 energy=-8.754331957445446 pbc="F F F"
Rb       0.00000000       0.00000000       0.00000000       0.00000000       0.00000000     -33.52204132
Rb       0.00000000       0.00000000       1.41454545       0.00000000       0.00000000      33.52204132
2
Properties=species:S:1:pos:R:3:forces:R:3 energy=-10.540065151896473 pbc="F F F"
Rb       0.00000000       0.00000000       0.00000000       0.00000000       0.00000000     -27.84680939
Rb       0.00000000       0.00000000       1.47333333       0.00000000       0.00000000      27.84680939
2
Properties=species:S:1:pos:R:3:forces:R:3 energy=-12.093525238205213 pbc="F F F"
Rb       0.00000000       0.00000000       0.00000000       0.00000000       0.00000000     -25.36605263
Rb       0.00000000       0.00000000       1.53212121       0.00000000       0.00000000      25.36605263
2
Properties=species:S:1:pos:R:3:forces:R:3 energy=-13.544832493380477 pbc="F F F"
Rb       0.00000000       0.00000000       0.00000000       0.00000000       0.00000000     -24.09175873
Rb       0.00000000       0.00000000       1.59090909       0.00000000       0.00000000      24.09175873
2
Properties=species:S:1:pos:R:3:forces:R:3 energy=-14.931561682716827 pbc="F F F"
Rb       0.00000000       0.00000000       0.00000000       0.00000000       0.00000000     -23.11010742
Rb       0.00000000       0.00000000       1.64969697       0.00000000       0.00000000      23.11010742
2
Properties=species:S:1:pos:R:3:forces:R:3 energy=-16.262272033204006 pbc="F F F"
Rb       0.00000000       0.00000000       0.00000000       0.00000000       0.00000000     -22.13601685
Rb       0.00000000       0.00000000       1.70848485       0.00000000       0.00000000      22.13601685
2
Properties=species:S:1:pos:R:3:forces:R:3 energy=-17.52742965953308 pbc="F F F"
Rb       0.00000000       0.00000000       0.00000000       0.00000000       0.00000000     -20.81615448
Rb       0.00000000       0.00000000       1.76727273       0.00000000       0.00000000      20.81615448
2
Properties=species:S:1:pos:R:3:forces:R:3 energy=-18.696475975187465 pbc="F F F"
Rb       0.00000000       0.00000000       0.00000000       0.00000000       0.00000000     -18.83011818
Rb       0.00000000       0.00000000       1.82606061       0.00000000       0.00000000      18.83011818
2
Properties=species:S:1:pos:R:3:forces:R:3 energy=-19.728328595589147 pbc="F F F"
Rb       0.00000000       0.00000000       0.00000000       0.00000000       0.00000000     -16.19701958
Rb       0.00000000       0.00000000       1.88484848       0.00000000       0.00000000      16.19701958
2
Properties=species:S:1:pos:R:3:forces:R:3 energy=-20.598130950583467 pbc="F F F"
Rb       0.00000000       0.00000000       0.00000000       0.00000000       0.00000000     -13.42787838
Rb       0.00000000       0.00000000       1.94363636       0.00000000       0.00000000      13.42787838
2
Properties=species:S:1:pos:R:3:forces:R:3 energy=-21.31631814256066 pbc="F F F"
Rb       0.00000000       0.00000000       0.00000000       0.00000000       0.00000000     -11.11382771
Rb       0.00000000       0.00000000       2.00242424       0.00000000       0.00000000      11.11382771
2
Properties=species:S:1:pos:R:3:forces:R:3 energy=-21.91880935780602 pbc="F F F"
Rb       0.00000000       0.00000000       0.00000000       0.00000000       0.00000000      -9.50236225
Rb       0.00000000       0.00000000       2.06121212       0.00000000       0.00000000       9.50236225
2
Properties=species:S:1:pos:R:3:forces:R:3 energy=-22.446496240886574 pbc="F F F"
Rb       0.00000000       0.00000000       0.00000000       0.00000000       0.00000000      -8.54639721
Rb       0.00000000       0.00000000       2.12000000       0.00000000       0.00000000       8.54639721
2
Properties=species:S:1:pos:R:3:forces:R:3 energy=-22.93271924313204 pbc="F F F"
Rb       0.00000000       0.00000000       0.00000000       0.00000000       0.00000000      -8.04928017
Rb       0.00000000       0.00000000       2.17878788       0.00000000       0.00000000       8.04928017
2
Properties=species:S:1:pos:R:3:forces:R:3 energy=-23.396286725054832 pbc="F F F"
Rb       0.00000000       0.00000000       0.00000000       0.00000000       0.00000000      -7.72687626
Rb       0.00000000       0.00000000       2.23757576       0.00000000       0.00000000       7.72687626
2
Properties=species:S:1:pos:R:3:forces:R:3 energy=-23.83981174953016 pbc="F F F"
Rb       0.00000000       0.00000000       0.00000000       0.00000000       0.00000000      -7.33886909
Rb       0.00000000       0.00000000       2.29636364       0.00000000       0.00000000       7.33886909
2
Properties=species:S:1:pos:R:3:forces:R:3 energy=-24.256099794743214 pbc="F F F"
Rb       0.00000000       0.00000000       0.00000000       0.00000000       0.00000000      -6.79875517
Rb       0.00000000       0.00000000       2.35515152       0.00000000       0.00000000       6.79875517
2
Properties=species:S:1:pos:R:3:forces:R:3 energy=-24.636840536761166 pbc="F F F"
Rb       0.00000000       0.00000000       0.00000000       0.00000000       0.00000000      -6.14031792
Rb       0.00000000       0.00000000       2.41393939       0.00000000       0.00000000       6.14031792
2
Properties=species:S:1:pos:R:3:forces:R:3 energy=-24.97709775296654 pbc="F F F"
Rb       0.00000000       0.00000000       0.00000000       0.00000000       0.00000000      -5.43270731
Rb       0.00000000       0.00000000       2.47272727       0.00000000       0.00000000       5.43270731
2
Properties=species:S:1:pos:R:3:forces:R:3 energy=-25.275770896466582 pbc="F F F"
Rb       0.00000000       0.00000000       0.00000000       0.00000000       0.00000000      -4.73324394
Rb       0.00000000       0.00000000       2.53151515       0.00000000       0.00000000       4.73324394
2
Properties=species:S:1:pos:R:3:forces:R:3 energy=-25.534467856615066 pbc="F F F"
Rb       0.00000000       0.00000000       0.00000000       0.00000000       0.00000000      -4.07685375
Rb       0.00000000       0.00000000       2.59030303       0.00000000       0.00000000       4.07685375
2
Properties=species:S:1:pos:R:3:forces:R:3 energy=-25.756288070188575 pbc="F F F"
Rb       0.00000000       0.00000000       0.00000000       0.00000000       0.00000000      -3.48026109
Rb       0.00000000       0.00000000       2.64909091       0.00000000       0.00000000       3.48026109
2
Properties=species:S:1:pos:R:3:forces:R:3 energy=-25.94495657877157 pbc="F F F"
Rb       0.00000000       0.00000000       0.00000000       0.00000000       0.00000000      -2.94951129
Rb       0.00000000       0.00000000       2.70787879       0.00000000       0.00000000       2.94951129
2
Properties=species:S:1:pos:R:3:forces:R:3 energy=-26.10439679335404 pbc="F F F"
Rb       0.00000000       0.00000000       0.00000000       0.00000000       0.00000000      -2.48587537
Rb       0.00000000       0.00000000       2.76666667       0.00000000       0.00000000       2.48587537
2
Properties=species:S:1:pos:R:3:forces:R:3 energy=-26.238530213617558 pbc="F F F"
Rb       0.00000000       0.00000000       0.00000000       0.00000000       0.00000000      -2.08819771
Rb       0.00000000       0.00000000       2.82545455       0.00000000       0.00000000       2.08819771
2
Properties=species:S:1:pos:R:3:forces:R:3 energy=-26.35113719782073 pbc="F F F"
Rb       0.00000000       0.00000000       0.00000000       0.00000000       0.00000000      -1.75258875
Rb       0.00000000       0.00000000       2.88424242       0.00000000       0.00000000       1.75258875
2
Properties=species:S:1:pos:R:3:forces:R:3 energy=-26.44566813211674 pbc="F F F"
Rb       0.00000000       0.00000000       0.00000000       0.00000000       0.00000000      -1.47184300
Rb       0.00000000       0.00000000       2.94303030       0.00000000       0.00000000       1.47184300
2
Properties=species:S:1:pos:R:3:forces:R:3 energy=-26.52507558228974 pbc="F F F"
Rb       0.00000000       0.00000000       0.00000000       0.00000000       0.00000000      -1.23629284
Rb       0.00000000       0.00000000       3.00181818       0.00000000       0.00000000       1.23629284
2
Properties=species:S:1:pos:R:3:forces:R:3 energy=-26.591715117961584 pbc="F F F"
Rb       0.00000000       0.00000000       0.00000000       0.00000000       0.00000000      -1.03589559
Rb       0.00000000       0.00000000       3.06060606       0.00000000       0.00000000       1.03589559
2
Properties=species:S:1:pos:R:3:forces:R:3 energy=-26.647396807045148 pbc="F F F"
Rb       0.00000000       0.00000000       0.00000000       0.00000000       0.00000000      -0.86238301
Rb       0.00000000       0.00000000       3.11939394       0.00000000       0.00000000       0.86238301
2
Properties=species:S:1:pos:R:3:forces:R:3 energy=-26.6935282700596 pbc="F F F"
Rb       0.00000000       0.00000000       0.00000000       0.00000000       0.00000000      -0.71033037
Rb       0.00000000       0.00000000       3.17818182       0.00000000       0.00000000       0.71033037
2
Properties=species:S:1:pos:R:3:forces:R:3 energy=-26.731282523246296 pbc="F F F"
Rb       0.00000000       0.00000000       0.00000000       0.00000000       0.00000000      -0.57713193
Rb       0.00000000       0.00000000       3.23696970       0.00000000       0.00000000       0.57713193
2
Properties=species:S:1:pos:R:3:forces:R:3 energy=-26.76174103961569 pbc="F F F"
Rb       0.00000000       0.00000000       0.00000000       0.00000000       0.00000000      -0.46218449
Rb       0.00000000       0.00000000       3.29575758       0.00000000       0.00000000       0.46218449
2
Properties=species:S:1:pos:R:3:forces:R:3 energy=-26.78598720467457 pbc="F F F"
Rb       0.00000000       0.00000000       0.00000000       0.00000000       0.00000000      -0.36572713
Rb       0.00000000       0.00000000       3.35454545       0.00000000       0.00000000       0.36572713
2
Properties=species:S:1:pos:R:3:forces:R:3 energy=-26.805104409869394 pbc="F F F"
Rb       0.00000000       0.00000000       0.00000000       0.00000000       0.00000000      -0.28770706
Rb       0.00000000       0.00000000       3.41333333       0.00000000       0.00000000       0.28770706
2
Properties=species:S:1:pos:R:3:forces:R:3 energy=-26.82015698781148 pbc="F F F"
Rb       0.00000000       0.00000000       0.00000000       0.00000000       0.00000000      -0.22715145
Rb       0.00000000       0.00000000       3.47212121       0.00000000       0.00000000       0.22715145
2
Properties=species:S:1:pos:R:3:forces:R:3 energy=-26.832117738968595 pbc="F F F"
Rb       0.00000000       0.00000000       0.00000000       0.00000000       0.00000000      -0.18220490
Rb       0.00000000       0.00000000       3.53090909       0.00000000       0.00000000       0.18220490
2
Properties=species:S:1:pos:R:3:forces:R:3 energy=-26.84183930757628 pbc="F F F"
Rb       0.00000000       0.00000000       0.00000000       0.00000000       0.00000000      -0.15057316
Rb       0.00000000       0.00000000       3.58969697       0.00000000       0.00000000       0.15057316
2
Properties=species:S:1:pos:R:3:forces:R:3 energy=-26.850037057473763 pbc="F F F"
Rb       0.00000000       0.00000000       0.00000000       0.00000000       0.00000000      -0.12992452
Rb       0.00000000       0.00000000       3.64848485       0.00000000       0.00000000       0.12992452
2
Properties=species:S:1:pos:R:3:forces:R:3 energy=-26.857289047553365 pbc="F F F"
Rb       0.00000000       0.00000000       0.00000000       0.00000000       0.00000000      -0.11801804
Rb       0.00000000       0.00000000       3.70727273       0.00000000       0.00000000       0.11801804
2
Properties=species:S:1:pos:R:3:forces:R:3 energy=-26.864041781128847 pbc="F F F"
Rb       0.00000000       0.00000000       0.00000000       0.00000000       0.00000000      -0.11266501
Rb       0.00000000       0.00000000       3.76606061       0.00000000       0.00000000       0.11266501
2
Properties=species:S:1:pos:R:3:forces:R:3 energy=-26.870619753369986 pbc="F F F"
Rb       0.00000000       0.00000000       0.00000000       0.00000000       0.00000000      -0.11165135
Rb       0.00000000       0.00000000       3.82484848       0.00000000       0.00000000       0.11165135
2
Properties=species:S:1:pos:R:3:forces:R:3 energy=-26.877210215480204 pbc="F F F"
Rb       0.00000000       0.00000000       0.00000000       0.00000000       0.00000000      -0.11274343
Rb       0.00000000       0.00000000       3.88363636       0.00000000       0.00000000       0.11274343
2
Properties=species:S:1:pos:R:3:forces:R:3 energy=-26.883874643734995 pbc="F F F"
Rb       0.00000000       0.00000000       0.00000000       0.00000000       0.00000000      -0.11384241
Rb       0.00000000       0.00000000       3.94242424       0.00000000       0.00000000       0.11384241
2
Properties=species:S:1:pos:R:3:forces:R:3 energy=-26.89056213685574 pbc="F F F"
Rb       0.00000000       0.00000000       0.00000000       0.00000000       0.00000000      -0.11325042
Rb       0.00000000       0.00000000       4.00121212       0.00000000       0.00000000       0.11325042
2
Properties=species:S:1:pos:R:3:forces:R:3 energy=-26.897136168387814 pbc="F F F"
Rb       0.00000000       0.00000000       0.00000000       0.00000000       0.00000000      -0.10991094
Rb       0.00000000       0.00000000       4.06000000       0.00000000       0.00000000       0.10991094
2
Properties=species:S:1:pos:R:3:forces:R:3 energy=-26.903422363075197 pbc="F F F"
Rb       0.00000000       0.00000000       0.00000000       0.00000000       0.00000000      -0.10345624
Rb       0.00000000       0.00000000       4.11878788       0.00000000       0.00000000       0.10345624
2
Properties=species:S:1:pos:R:3:forces:R:3 energy=-26.909242957828635 pbc="F F F"
Rb       0.00000000       0.00000000       0.00000000       0.00000000       0.00000000      -0.09402997
Rb       0.00000000       0.00000000       4.17757576       0.00000000       0.00000000       0.09402997
2
Properties=species:S:1:pos:R:3:forces:R:3 energy=-26.914428443410348 pbc="F F F"
Rb       0.00000000       0.00000000       0.00000000       0.00000000       0.00000000      -0.08201125
Rb       0.00000000       0.00000000       4.23636364       0.00000000       0.00000000       0.08201125
2
Properties=species:S:1:pos:R:3:forces:R:3 energy=-26.918842668432934 pbc="F F F"
Rb       0.00000000       0.00000000       0.00000000       0.00000000       0.00000000      -0.06780522
Rb       0.00000000       0.00000000       4.29515152       0.00000000       0.00000000       0.06780522
2
Properties=species:S:1:pos:R:3:forces:R:3 energy=-26.92236425015385 pbc="F F F"
Rb       0.00000000       0.00000000       0.00000000       0.00000000       0.00000000      -0.05176539
Rb       0.00000000       0.00000000       4.35393939       0.00000000       0.00000000       0.05176539
2
Properties=species:S:1:pos:R:3:forces:R:3 energy=-26.92489878834801 pbc="F F F"
Rb       0.00000000       0.00000000       0.00000000       0.00000000       0.00000000      -0.03420539
Rb       0.00000000       0.00000000       4.41272727       0.00000000       0.00000000       0.03420539
2
Properties=species:S:1:pos:R:3:forces:R:3 energy=-26.926362926305163 pbc="F F F"
Rb       0.00000000       0.00000000       0.00000000       0.00000000       0.00000000      -0.01542968
Rb       0.00000000       0.00000000       4.47151515       0.00000000       0.00000000       0.01542968
2
Properties=species:S:1:pos:R:3:forces:R:3 energy=-26.92669394189831 pbc="F F F"
Rb       0.00000000       0.00000000       0.00000000       0.00000000       0.00000000       0.00425794
Rb       0.00000000       0.00000000       4.53030303       0.00000000       0.00000000      -0.00425794
2
Properties=species:S:1:pos:R:3:forces:R:3 energy=-26.925849018741193 pbc="F F F"
Rb       0.00000000       0.00000000       0.00000000       0.00000000       0.00000000       0.02455317
Rb       0.00000000       0.00000000       4.58909091       0.00000000       0.00000000      -0.02455317
2
Properties=species:S:1:pos:R:3:forces:R:3 energy=-26.923802337640698 pbc="F F F"
Rb       0.00000000       0.00000000       0.00000000       0.00000000       0.00000000       0.04515010
Rb       0.00000000       0.00000000       4.64787879       0.00000000       0.00000000      -0.04515010
2
Properties=species:S:1:pos:R:3:forces:R:3 energy=-26.920542230690064 pbc="F F F"
Rb       0.00000000       0.00000000       0.00000000       0.00000000       0.00000000       0.06572520
Rb       0.00000000       0.00000000       4.70666667       0.00000000       0.00000000      -0.06572520
2
Properties=species:S:1:pos:R:3:forces:R:3 energy=-26.916080930165258 pbc="F F F"
Rb       0.00000000       0.00000000       0.00000000       0.00000000       0.00000000       0.08598199
Rb       0.00000000       0.00000000       4.76545455       0.00000000       0.00000000      -0.08598199
2
Properties=species:S:1:pos:R:3:forces:R:3 energy=-26.910440411894598 pbc="F F F"
Rb       0.00000000       0.00000000       0.00000000       0.00000000       0.00000000       0.10589223
Rb       0.00000000       0.00000000       4.82424242       0.00000000       0.00000000      -0.10589223
2
Properties=species:S:1:pos:R:3:forces:R:3 energy=-26.903622718752 pbc="F F F"
Rb       0.00000000       0.00000000       0.00000000       0.00000000       0.00000000       0.12625048
Rb       0.00000000       0.00000000       4.88303030       0.00000000       0.00000000      -0.12625048
2
Properties=species:S:1:pos:R:3:forces:R:3 energy=-26.89553930368069 pbc="F F F"
Rb       0.00000000       0.00000000       0.00000000       0.00000000       0.00000000       0.14956678
Rb       0.00000000       0.00000000       4.94181818       0.00000000       0.00000000      -0.14956678
2
Properties=species:S:1:pos:R:3:forces:R:3 energy=-26.885886551785433 pbc="F F F"
Rb       0.00000000       0.00000000       0.00000000       0.00000000       0.00000000       0.18056259
Rb       0.00000000       0.00000000       5.00060606       0.00000000       0.00000000      -0.18056259
2
Properties=species:S:1:pos:R:3:forces:R:3 energy=-26.87403979184387 pbc="F F F"
Rb       0.00000000       0.00000000       0.00000000       0.00000000       0.00000000       0.22522774
Rb       0.00000000       0.00000000       5.05939394       0.00000000       0.00000000      -0.22522774
2
Properties=species:S:1:pos:R:3:forces:R:3 energy=-26.859053018969533 pbc="F F F"
Rb       0.00000000       0.00000000       0.00000000       0.00000000       0.00000000       0.28771701
Rb       0.00000000       0.00000000       5.11818182       0.00000000       0.00000000      -0.28771701
2
Properties=species:S:1:pos:R:3:forces:R:3 energy=-26.83989212192908 pbc="F F F"
Rb       0.00000000       0.00000000       0.00000000       0.00000000       0.00000000       0.36621842
Rb       0.00000000       0.00000000       5.17696970       0.00000000       0.00000000      -0.36621842
2
Properties=species:S:1:pos:R:3:forces:R:3 energy=-26.815904189543613 pbc="F F F"
Rb       0.00000000       0.00000000       0.00000000       0.00000000       0.00000000       0.44904107
Rb       0.00000000       0.00000000       5.23575758       0.00000000       0.00000000      -0.44904107
2
Properties=species:S:1:pos:R:3:forces:R:3 energy=-26.787440320249086 pbc="F F F"
Rb       0.00000000       0.00000000       0.00000000       0.00000000       0.00000000       0.51431412
Rb       0.00000000       0.00000000       5.29454545       0.00000000       0.00000000      -0.51431412
2
Properties=species:S:1:pos:R:3:forces:R:3 energy=-26.756141379737983 pbc="F F F"
Rb       0.00000000       0.00000000       0.00000000       0.00000000       0.00000000       0.54491520
Rb       0.00000000       0.00000000       5.35333333       0.00000000       0.00000000      -0.54491520
2
Properties=species:S:1:pos:R:3:forces:R:3 energy=-26.723590500245038 pbc="F F F"
Rb       0.00000000       0.00000000       0.00000000       0.00000000       0.00000000       0.56639063
Rb       0.00000000       0.00000000       5.41212121       0.00000000       0.00000000      -0.56639063
2
Properties=species:S:1:pos:R:3:forces:R:3 energy=-26.68850335967905 pbc="F F F"
Rb       0.00000000       0.00000000       0.00000000       0.00000000       0.00000000       0.63726139
Rb       0.00000000       0.00000000       5.47090909       0.00000000       0.00000000      -0.63726139
2
Properties=species:S:1:pos:R:3:forces:R:3 energy=-26.64831238248948 pbc="F F F"
Rb       0.00000000       0.00000000       0.00000000       0.00000000       0.00000000       0.72220993
Rb       0.00000000       0.00000000       5.52969697       0.00000000       0.00000000      -0.72220993
2
Properties=species:S:1:pos:R:3:forces:R:3 energy=-26.60544608238371 pbc="F F F"
Rb       0.00000000       0.00000000       0.00000000       0.00000000       0.00000000       0.71856570
Rb       0.00000000       0.00000000       5.58848485       0.00000000       0.00000000      -0.71856570
2
Properties=species:S:1:pos:R:3:forces:R:3 energy=-26.565047284786676 pbc="F F F"
Rb       0.00000000       0.00000000       0.00000000       0.00000000       0.00000000       0.65840095
Rb       0.00000000       0.00000000       5.64727273       0.00000000       0.00000000      -0.65840095
2
Properties=species:S:1:pos:R:3:forces:R:3 energy=-26.526281960014277 pbc="F F F"
Rb       0.00000000       0.00000000       0.00000000       0.00000000       0.00000000       0.68429857
Rb       0.00000000       0.00000000       5.70606061       0.00000000       0.00000000      -0.68429857
2
Properties=species:S:1:pos:R:3:forces:R:3 energy=-26.48226530519468 pbc="F F F"
Rb       0.00000000       0.00000000       0.00000000       0.00000000       0.00000000       0.81068879
Rb       0.00000000       0.00000000       5.76484848       0.00000000       0.00000000      -0.81068879
2
Properties=species:S:1:pos:R:3:forces:R:3 energy=-26.434083487382185 pbc="F F F"
Rb       0.00000000       0.00000000       0.00000000       0.00000000       0.00000000       0.78192741
Rb       0.00000000       0.00000000       5.82363636       0.00000000       0.00000000      -0.78192741
2
Properties=species:S:1:pos:R:3:forces:R:3 energy=-26.39608315182012 pbc="F F F"
Rb       0.00000000       0.00000000       0.00000000       0.00000000       0.00000000       0.48369825
Rb       0.00000000       0.00000000       5.88242424       0.00000000       0.00000000      -0.48369825
2
Properties=species:S:1:pos:R:3:forces:R:3 energy=-26.378033871864506 pbc="F F F"
Rb       0.00000000       0.00000000       0.00000000       0.00000000       0.00000000       0.14439839
Rb       0.00000000       0.00000000       5.94121212       0.00000000       0.00000000      -0.14439839
2
Properties=species:S:1:pos:R:3:forces:R:3 energy=-26.37497477118737 pbc="F F F"
Rb       0.00000000       0.00000000       0.00000000       0.00000000       0.00000000       0.00571408
Rb       0.00000000       0.00000000       6.00000000       0.00000000       0.00000000      -0.00571408
