2
Properties=species:S:1:pos:R:3:forces:R:3 energy=50879.43280658064 pbc="F F F"
S        0.00000000       0.00000000       0.00000000       0.00000000       0.00000000  -55846.31250000
S        0.00000000       0.00000000       0.18000000       0.00000000       0.00000000   55846.31250000
2
Properties=species:S:1:pos:R:3:forces:R:3 energy=46802.98358783064 pbc="F F F"
S        0.00000000       0.00000000       0.00000000       0.00000000       0.00000000  -90282.81250000
S        0.00000000       0.00000000       0.23878788       0.00000000       0.00000000   90282.81250000
2
Properties=species:S:1:pos:R:3:forces:R:3 energy=39658.96796283143 pbc="F F F"
S        0.00000000       0.00000000       0.00000000       0.00000000       0.00000000 -155071.34375000
S        0.00000000       0.00000000       0.29757576       0.00000000       0.00000000  155071.34375000
2
Properties=species:S:1:pos:R:3:forces:R:3 energy=28807.38202533143 pbc="F F F"
S        0.00000000       0.00000000       0.00000000       0.00000000       0.00000000 -206925.53125000
S        0.00000000       0.00000000       0.35636364       0.00000000       0.00000000  206925.53125000
2
Properties=species:S:1:pos:R:3:forces:R:3 energy=16998.290228458012 pbc="F F F"
S        0.00000000       0.00000000       0.00000000       0.00000000       0.00000000 -195879.85937500
S        0.00000000       0.00000000       0.41515152       0.00000000       0.00000000  195879.85937500
2
Properties=species:S:1:pos:R:3:forces:R:3 energy=8025.23749408539 pbc="F F F"
S        0.00000000       0.00000000       0.00000000       0.00000000       0.00000000 -104553.10156250
S        0.00000000       0.00000000       0.47393939       0.00000000       0.00000000  104553.10156250
2
Properties=species:S:1:pos:R:3:forces:R:3 energy=4156.478705028433 pbc="F F F"
S        0.00000000       0.00000000       0.00000000       0.00000000       0.00000000  -35728.73046875
S        0.00000000       0.00000000       0.53272727       0.00000000       0.00000000   35728.73046875
2
Properties=species:S:1:pos:R:3:forces:R:3 energy=1836.6257997637074 pbc="F F F"
S        0.00000000       0.00000000       0.00000000       0.00000000       0.00000000  -34999.59765625
S        0.00000000       0.00000000       0.59151515       0.00000000       0.00000000   34999.59765625
2
Properties=species:S:1:pos:R:3:forces:R:3 energy=457.7750917709421 pbc="F F F"
S        0.00000000       0.00000000       0.00000000       0.00000000       0.00000000  -17810.76953125
S        0.00000000       0.00000000       0.65030303       0.00000000       0.00000000   17810.76953125
2
Properties=species:S:1:pos:R:3:forces:R:3 energy=177.27805199977885 pbc="F F F"
S        0.00000000       0.00000000       0.00000000       0.00000000       0.00000000    -685.57666016
S        0.00000000       0.00000000       0.70909091       0.00000000       0.00000000     685.57666016
2
Properties=species:S:1:pos:R:3:forces:R:3 energy=129.2183443922314 pbc="F F F"
S        0.00000000       0.00000000       0.00000000       0.00000000       0.00000000   -1145.36840820
S        0.00000000       0.00000000       0.76787879       0.00000000       0.00000000    1145.36840820
2
Properties=species:S:1:pos:R:3:forces:R:3 energy=61.086020225750445 pbc="F F F"
S        0.00000000       0.00000000       0.00000000       0.00000000       0.00000000   -1339.40185547
S        0.00000000       0.00000000       0.82666667       0.00000000       0.00000000    1339.40185547
2
Properties=species:S:1:pos:R:3:forces:R:3 energy=41.126768894801764 pbc="F F F"
S        0.00000000       0.00000000       0.00000000       0.00000000       0.00000000    -154.05607605
S        0.00000000       0.00000000       0.88545455       0.00000000       0.00000000     154.05607605
2
Properties=species:S:1:pos:R:3:forces:R:3 energy=35.26614659254208 pbc="F F F"
S        0.00000000       0.00000000       0.00000000       0.00000000       0.00000000     -51.14485550
S        0.00000000       0.00000000       0.94424242       0.00000000       0.00000000      51.14485550
2
Properties=species:S:1:pos:R:3:forces:R:3 energy=33.38703067516055 pbc="F F F"
S        0.00000000       0.00000000       0.00000000       0.00000000       0.00000000      -2.85896301
S        0.00000000       0.00000000       1.00303030       0.00000000       0.00000000       2.85896301
2
Properties=species:S:1:pos:R:3:forces:R:3 energy=31.874758983334413 pbc="F F F"
S        0.00000000       0.00000000       0.00000000       0.00000000       0.00000000     -65.16226959
S        0.00000000       0.00000000       1.06181818       0.00000000       0.00000000      65.16226959
2
Properties=species:S:1:pos:R:3:forces:R:3 energy=25.832805193856974 pbc="F F F"
S        0.00000000       0.00000000       0.00000000       0.00000000       0.00000000    -131.31486511
S        0.00000000       0.00000000       1.12060606       0.00000000       0.00000000     131.31486511
2
Properties=species:S:1:pos:R:3:forces:R:3 energy=17.55210483734086 pbc="F F F"
S        0.00000000       0.00000000       0.00000000       0.00000000       0.00000000    -144.67831421
S        0.00000000       0.00000000       1.17939394       0.00000000       0.00000000     144.67831421
2
Properties=species:S:1:pos:R:3:forces:R:3 energy=9.186333965021069 pbc="F F F"
S        0.00000000       0.00000000       0.00000000       0.00000000       0.00000000    -135.19172668
S        0.00000000       0.00000000       1.23818182       0.00000000       0.00000000     135.19172668
2
Properties=species:S:1:pos:R:3:forces:R:3 energy=2.1328762857849037 pbc="F F F"
S        0.00000000       0.00000000       0.00000000       0.00000000       0.00000000    -103.75088501
S        0.00000000       0.00000000       1.29696970       0.00000000       0.00000000     103.75088501
2
Properties=species:S:1:pos:R:3:forces:R:3 energy=-3.0963992205282684 pbc="F F F"
S        0.00000000       0.00000000       0.00000000       0.00000000       0.00000000     -75.22341919
S        0.00000000       0.00000000       1.35575758       0.00000000       0.00000000      75.22341919
2
Properties=species:S:1:pos:R:3:forces:R:3 energy=-6.829625632431693 pbc="F F F"
S        0.00000000       0.00000000       0.00000000       0.00000000       0.00000000     -52.86452866
S        0.00000000       0.00000000       1.41454545       0.00000000       0.00000000      52.86452866
2
Properties=species:S:1:pos:R:3:forces:R:3 energy=-9.44787448736646 pbc="F F F"
S        0.00000000       0.00000000       0.00000000       0.00000000       0.00000000     -37.34301376
S        0.00000000       0.00000000       1.47333333       0.00000000       0.00000000      37.34301376
2
Properties=species:S:1:pos:R:3:forces:R:3 energy=-11.332512004177653 pbc="F F F"
S        0.00000000       0.00000000       0.00000000       0.00000000       0.00000000     -27.47864342
S        0.00000000       0.00000000       1.53212121       0.00000000       0.00000000      27.47864342
2
Properties=species:S:1:pos:R:3:forces:R:3 energy=-12.730906949492883 pbc="F F F"
S        0.00000000       0.00000000       0.00000000       0.00000000       0.00000000     -20.33629036
S        0.00000000       0.00000000       1.59090909       0.00000000       0.00000000      20.33629036
2
Properties=species:S:1:pos:R:3:forces:R:3 energy=-13.742898490264853 pbc="F F F"
S        0.00000000       0.00000000       0.00000000       0.00000000       0.00000000     -14.24592113
S        0.00000000       0.00000000       1.64969697       0.00000000       0.00000000      14.24592113
2
Properties=species:S:1:pos:R:3:forces:R:3 energy=-14.426554852052021 pbc="F F F"
S        0.00000000       0.00000000       0.00000000       0.00000000       0.00000000      -9.20522976
S        0.00000000       0.00000000       1.70848485       0.00000000       0.00000000       9.20522976
2
Properties=species:S:1:pos:R:3:forces:R:3 energy=-14.848553072131404 pbc="F F F"
S        0.00000000       0.00000000       0.00000000       0.00000000       0.00000000      -5.34930134
S        0.00000000       0.00000000       1.76727273       0.00000000       0.00000000       5.34930134
2
Properties=species:S:1:pos:R:3:forces:R:3 energy=-15.076710778302663 pbc="F F F"
S        0.00000000       0.00000000       0.00000000       0.00000000       0.00000000      -2.56244278
S        0.00000000       0.00000000       1.82606061       0.00000000       0.00000000       2.56244278
2
Properties=species:S:1:pos:R:3:forces:R:3 energy=-15.1631175959956 pbc="F F F"
S        0.00000000       0.00000000       0.00000000       0.00000000       0.00000000      -0.46244797
S        0.00000000       0.00000000       1.88484848       0.00000000       0.00000000       0.46244797
2
Properties=species:S:1:pos:R:3:forces:R:3 energy=-15.140501658628109 pbc="F F F"
S        0.00000000       0.00000000       0.00000000       0.00000000       0.00000000       1.14575410
S        0.00000000       0.00000000       1.94363636       0.00000000       0.00000000      -1.14575410
2
Properties=species:S:1:pos:R:3:forces:R:3 energy=-15.039304183855613 pbc="F F F"
S        0.00000000       0.00000000       0.00000000       0.00000000       0.00000000       2.20569539
S        0.00000000       0.00000000       2.00242424       0.00000000       0.00000000      -2.20569539
2
Properties=species:S:1:pos:R:3:forces:R:3 energy=-14.890153317419108 pbc="F F F"
S        0.00000000       0.00000000       0.00000000       0.00000000       0.00000000       2.81282830
S        0.00000000       0.00000000       2.06121212       0.00000000       0.00000000      -2.81282830
2
Properties=species:S:1:pos:R:3:forces:R:3 energy=-14.712361866423025 pbc="F F F"
S        0.00000000       0.00000000       0.00000000       0.00000000       0.00000000       3.22614217
S        0.00000000       0.00000000       2.12000000       0.00000000       0.00000000      -3.22614217
2
Properties=species:S:1:pos:R:3:forces:R:3 energy=-14.510142177852753 pbc="F F F"
S        0.00000000       0.00000000       0.00000000       0.00000000       0.00000000       3.66498017
S        0.00000000       0.00000000       2.17878788       0.00000000       0.00000000      -3.66498017
2
Properties=species:S:1:pos:R:3:forces:R:3 energy=-14.281611682768597 pbc="F F F"
S        0.00000000       0.00000000       0.00000000       0.00000000       0.00000000       4.09159517
S        0.00000000       0.00000000       2.23757576       0.00000000       0.00000000      -4.09159517
2
Properties=species:S:1:pos:R:3:forces:R:3 energy=-14.029334812991284 pbc="F F F"
S        0.00000000       0.00000000       0.00000000       0.00000000       0.00000000       4.54459381
S        0.00000000       0.00000000       2.29636364       0.00000000       0.00000000      -4.54459381
2
Properties=species:S:1:pos:R:3:forces:R:3 energy=-13.735189908557127 pbc="F F F"
S        0.00000000       0.00000000       0.00000000       0.00000000       0.00000000       5.51688480
S        0.00000000       0.00000000       2.35515152       0.00000000       0.00000000      -5.51688480
2
Properties=species:S:1:pos:R:3:forces:R:3 energy=-13.401822661592632 pbc="F F F"
S        0.00000000       0.00000000       0.00000000       0.00000000       0.00000000       5.41509438
S        0.00000000       0.00000000       2.41393939       0.00000000       0.00000000      -5.41509438
2
Properties=species:S:1:pos:R:3:forces:R:3 energy=-13.138783195591955 pbc="F F F"
S        0.00000000       0.00000000       0.00000000       0.00000000       0.00000000       3.46847320
S        0.00000000       0.00000000       2.47272727       0.00000000       0.00000000      -3.46847320
2
Properties=species:S:1:pos:R:3:forces:R:3 energy=-12.969254814136356 pbc="F F F"
S        0.00000000       0.00000000       0.00000000       0.00000000       0.00000000       2.62095666
S        0.00000000       0.00000000       2.53151515       0.00000000       0.00000000      -2.62095666
2
Properties=species:S:1:pos:R:3:forces:R:3 energy=-12.803945625017402 pbc="F F F"
S        0.00000000       0.00000000       0.00000000       0.00000000       0.00000000       3.09171176
S        0.00000000       0.00000000       2.59030303       0.00000000       0.00000000      -3.09171176
2
Properties=species:S:1:pos:R:3:forces:R:3 energy=-12.607171713130443 pbc="F F F"
S        0.00000000       0.00000000       0.00000000       0.00000000       0.00000000       3.53872347
S        0.00000000       0.00000000       2.64909091       0.00000000       0.00000000      -3.53872347
2
Properties=species:S:1:pos:R:3:forces:R:3 energy=-12.394720848872732 pbc="F F F"
S        0.00000000       0.00000000       0.00000000       0.00000000       0.00000000       3.65632558
S        0.00000000       0.00000000       2.70787879       0.00000000       0.00000000      -3.65632558
2
Properties=species:S:1:pos:R:3:forces:R:3 energy=-12.177595703992155 pbc="F F F"
S        0.00000000       0.00000000       0.00000000       0.00000000       0.00000000       3.74846220
S        0.00000000       0.00000000       2.76666667       0.00000000       0.00000000      -3.74846220
2
Properties=species:S:1:pos:R:3:forces:R:3 energy=-11.951815430926747 pbc="F F F"
S        0.00000000       0.00000000       0.00000000       0.00000000       0.00000000       3.93914723
S        0.00000000       0.00000000       2.82545455       0.00000000       0.00000000      -3.93914723
2
Properties=species:S:1:pos:R:3:forces:R:3 energy=-11.716203988005148 pbc="F F F"
S        0.00000000       0.00000000       0.00000000       0.00000000       0.00000000       4.04154730
S        0.00000000       0.00000000       2.88424242       0.00000000       0.00000000      -4.04154730
2
Properties=species:S:1:pos:R:3:forces:R:3 energy=-11.481983212279525 pbc="F F F"
S        0.00000000       0.00000000       0.00000000       0.00000000       0.00000000       3.87862468
S        0.00000000       0.00000000       2.94303030       0.00000000       0.00000000      -3.87862468
2
Properties=species:S:1:pos:R:3:forces:R:3 energy=-11.265025494720252 pbc="F F F"
S        0.00000000       0.00000000       0.00000000       0.00000000       0.00000000       3.47126913
S        0.00000000       0.00000000       3.00181818       0.00000000       0.00000000      -3.47126913
2
Properties=species:S:1:pos:R:3:forces:R:3 energy=-11.076190853634694 pbc="F F F"
S        0.00000000       0.00000000       0.00000000       0.00000000       0.00000000       2.94324374
S        0.00000000       0.00000000       3.06060606       0.00000000       0.00000000      -2.94324374
2
Properties=species:S:1:pos:R:3:forces:R:3 energy=-10.91920603663939 pbc="F F F"
S        0.00000000       0.00000000       0.00000000       0.00000000       0.00000000       2.40168548
S        0.00000000       0.00000000       3.11939394       0.00000000       0.00000000      -2.40168548
2
Properties=species:S:1:pos:R:3:forces:R:3 energy=-10.792842045020349 pbc="F F F"
S        0.00000000       0.00000000       0.00000000       0.00000000       0.00000000       1.90853405
S        0.00000000       0.00000000       3.17818182       0.00000000       0.00000000      -1.90853405
2
Properties=species:S:1:pos:R:3:forces:R:3 energy=-10.693273740987667 pbc="F F F"
S        0.00000000       0.00000000       0.00000000       0.00000000       0.00000000       1.49299145
S        0.00000000       0.00000000       3.23696970       0.00000000       0.00000000      -1.49299145
2
Properties=species:S:1:pos:R:3:forces:R:3 energy=-10.61560392693909 pbc="F F F"
S        0.00000000       0.00000000       0.00000000       0.00000000       0.00000000       1.16367221
S        0.00000000       0.00000000       3.29575758       0.00000000       0.00000000      -1.16367221
2
Properties=species:S:1:pos:R:3:forces:R:3 energy=-10.554854274847289 pbc="F F F"
S        0.00000000       0.00000000       0.00000000       0.00000000       0.00000000       0.91574985
S        0.00000000       0.00000000       3.35454545       0.00000000       0.00000000      -0.91574985
2
Properties=species:S:1:pos:R:3:forces:R:3 energy=-10.506585266834596 pbc="F F F"
S        0.00000000       0.00000000       0.00000000       0.00000000       0.00000000       0.73655808
S        0.00000000       0.00000000       3.41333333       0.00000000       0.00000000      -0.73655808
2
Properties=species:S:1:pos:R:3:forces:R:3 energy=-10.467213772680148 pbc="F F F"
S        0.00000000       0.00000000       0.00000000       0.00000000       0.00000000       0.61042005
S        0.00000000       0.00000000       3.47212121       0.00000000       0.00000000      -0.61042005
2
Properties=species:S:1:pos:R:3:forces:R:3 energy=-10.434075064784974 pbc="F F F"
S        0.00000000       0.00000000       0.00000000       0.00000000       0.00000000       0.52212197
S        0.00000000       0.00000000       3.53090909       0.00000000       0.00000000      -0.52212197
2
Properties=species:S:1:pos:R:3:forces:R:3 energy=-10.405335080134895 pbc="F F F"
S        0.00000000       0.00000000       0.00000000       0.00000000       0.00000000       0.45890158
S        0.00000000       0.00000000       3.58969697       0.00000000       0.00000000      -0.45890158
2
Properties=species:S:1:pos:R:3:forces:R:3 energy=-10.379816872165778 pbc="F F F"
S        0.00000000       0.00000000       0.00000000       0.00000000       0.00000000       0.41122007
S        0.00000000       0.00000000       3.64848485       0.00000000       0.00000000      -0.41122007
2
Properties=species:S:1:pos:R:3:forces:R:3 energy=-10.356808918266164 pbc="F F F"
S        0.00000000       0.00000000       0.00000000       0.00000000       0.00000000       0.37267259
S        0.00000000       0.00000000       3.70727273       0.00000000       0.00000000      -0.37267259
2
Properties=species:S:1:pos:R:3:forces:R:3 energy=-10.33589633288651 pbc="F F F"
S        0.00000000       0.00000000       0.00000000       0.00000000       0.00000000       0.33943203
S        0.00000000       0.00000000       3.76606061       0.00000000       0.00000000      -0.33943203
2
Properties=species:S:1:pos:R:3:forces:R:3 energy=-10.31683498252941 pbc="F F F"
S        0.00000000       0.00000000       0.00000000       0.00000000       0.00000000       0.30950290
S        0.00000000       0.00000000       3.82484848       0.00000000       0.00000000      -0.30950290
2
Properties=species:S:1:pos:R:3:forces:R:3 energy=-10.299459938558929 pbc="F F F"
S        0.00000000       0.00000000       0.00000000       0.00000000       0.00000000       0.28198141
S        0.00000000       0.00000000       3.88363636       0.00000000       0.00000000      -0.28198141
2
Properties=species:S:1:pos:R:3:forces:R:3 energy=-10.283641618477452 pbc="F F F"
S        0.00000000       0.00000000       0.00000000       0.00000000       0.00000000       0.25647914
S        0.00000000       0.00000000       3.94242424       0.00000000       0.00000000      -0.25647914
2
Properties=species:S:1:pos:R:3:forces:R:3 energy=-10.269270523176857 pbc="F F F"
S        0.00000000       0.00000000       0.00000000       0.00000000       0.00000000       0.23273006
S        0.00000000       0.00000000       4.00121212       0.00000000       0.00000000      -0.23273006
2
Properties=species:S:1:pos:R:3:forces:R:3 energy=-10.256249611503753 pbc="F F F"
S        0.00000000       0.00000000       0.00000000       0.00000000       0.00000000       0.21044248
S        0.00000000       0.00000000       4.06000000       0.00000000       0.00000000      -0.21044248
2
Properties=species:S:1:pos:R:3:forces:R:3 energy=-10.244504792260877 pbc="F F F"
S        0.00000000       0.00000000       0.00000000       0.00000000       0.00000000       0.18930663
S        0.00000000       0.00000000       4.11878788       0.00000000       0.00000000      -0.18930663
2
Properties=species:S:1:pos:R:3:forces:R:3 energy=-10.233973478531379 pbc="F F F"
S        0.00000000       0.00000000       0.00000000       0.00000000       0.00000000       0.16910782
S        0.00000000       0.00000000       4.17757576       0.00000000       0.00000000      -0.16910782
2
Properties=species:S:1:pos:R:3:forces:R:3 energy=-10.224602680726179 pbc="F F F"
S        0.00000000       0.00000000       0.00000000       0.00000000       0.00000000       0.14984123
S        0.00000000       0.00000000       4.23636364       0.00000000       0.00000000      -0.14984123
2
Properties=species:S:1:pos:R:3:forces:R:3 energy=-10.216332788180905 pbc="F F F"
S        0.00000000       0.00000000       0.00000000       0.00000000       0.00000000       0.13172120
S        0.00000000       0.00000000       4.29515152       0.00000000       0.00000000      -0.13172120
2
Properties=species:S:1:pos:R:3:forces:R:3 energy=-10.209087077154521 pbc="F F F"
S        0.00000000       0.00000000       0.00000000       0.00000000       0.00000000       0.11507969
S        0.00000000       0.00000000       4.35393939       0.00000000       0.00000000      -0.11507969
2
Properties=species:S:1:pos:R:3:forces:R:3 energy=-10.202768833175295 pbc="F F F"
S        0.00000000       0.00000000       0.00000000       0.00000000       0.00000000       0.10018422
S        0.00000000       0.00000000       4.41272727       0.00000000       0.00000000      -0.10018422
2
Properties=species:S:1:pos:R:3:forces:R:3 energy=-10.197271852149685 pbc="F F F"
S        0.00000000       0.00000000       0.00000000       0.00000000       0.00000000       0.08708023
S        0.00000000       0.00000000       4.47151515       0.00000000       0.00000000      -0.08708023
2
Properties=species:S:1:pos:R:3:forces:R:3 energy=-10.192499487318157 pbc="F F F"
S        0.00000000       0.00000000       0.00000000       0.00000000       0.00000000       0.07553259
S        0.00000000       0.00000000       4.53030303       0.00000000       0.00000000      -0.07553259
2
Properties=species:S:1:pos:R:3:forces:R:3 energy=-10.188370369717177 pbc="F F F"
S        0.00000000       0.00000000       0.00000000       0.00000000       0.00000000       0.06507538
S        0.00000000       0.00000000       4.58909091       0.00000000       0.00000000      -0.06507538
2
Properties=species:S:1:pos:R:3:forces:R:3 energy=-10.184837472954019 pbc="F F F"
S        0.00000000       0.00000000       0.00000000       0.00000000       0.00000000       0.05515928
S        0.00000000       0.00000000       4.64787879       0.00000000       0.00000000      -0.05515928
2
Properties=species:S:1:pos:R:3:forces:R:3 energy=-10.181884287818106 pbc="F F F"
S        0.00000000       0.00000000       0.00000000       0.00000000       0.00000000       0.04529116
S        0.00000000       0.00000000       4.70666667       0.00000000       0.00000000      -0.04529116
2
Properties=species:S:1:pos:R:3:forces:R:3 energy=-10.179518127553857 pbc="F F F"
S        0.00000000       0.00000000       0.00000000       0.00000000       0.00000000       0.03512762
S        0.00000000       0.00000000       4.76545455       0.00000000       0.00000000      -0.03512762
2
Properties=species:S:1:pos:R:3:forces:R:3 energy=-10.17776250519779 pbc="F F F"
S        0.00000000       0.00000000       0.00000000       0.00000000       0.00000000       0.02449594
S        0.00000000       0.00000000       4.82424242       0.00000000       0.00000000      -0.02449594
2
Properties=species:S:1:pos:R:3:forces:R:3 energy=-10.176648532690656 pbc="F F F"
S        0.00000000       0.00000000       0.00000000       0.00000000       0.00000000       0.01335992
S        0.00000000       0.00000000       4.88303030       0.00000000       0.00000000      -0.01335992
2
Properties=species:S:1:pos:R:3:forces:R:3 energy=-10.176201558349648 pbc="F F F"
S        0.00000000       0.00000000       0.00000000       0.00000000       0.00000000       0.00176015
S        0.00000000       0.00000000       4.94181818       0.00000000       0.00000000      -0.00176015
2
Properties=species:S:1:pos:R:3:forces:R:3 energy=-10.176447841796653 pbc="F F F"
S        0.00000000       0.00000000       0.00000000       0.00000000       0.00000000      -0.01018317
S        0.00000000       0.00000000       5.00060606       0.00000000       0.00000000       0.01018317
2
Properties=species:S:1:pos:R:3:forces:R:3 energy=-10.17740120330978 pbc="F F F"
S        0.00000000       0.00000000       0.00000000       0.00000000       0.00000000      -0.02226254
S        0.00000000       0.00000000       5.05939394       0.00000000       0.00000000       0.02226254
2
Properties=species:S:1:pos:R:3:forces:R:3 energy=-10.179061100635609 pbc="F F F"
S        0.00000000       0.00000000       0.00000000       0.00000000       0.00000000      -0.03413904
S        0.00000000       0.00000000       5.11818182       0.00000000       0.00000000       0.03413904
2
Properties=species:S:1:pos:R:3:forces:R:3 energy=-10.181401188857189 pbc="F F F"
S        0.00000000       0.00000000       0.00000000       0.00000000       0.00000000      -0.04527024
S        0.00000000       0.00000000       5.17696970       0.00000000       0.00000000       0.04527024
2
Properties=species:S:1:pos:R:3:forces:R:3 energy=-10.184349298381084 pbc="F F F"
S        0.00000000       0.00000000       0.00000000       0.00000000       0.00000000      -0.05459738
S        0.00000000       0.00000000       5.23575758       0.00000000       0.00000000       0.05459738
2
Properties=species:S:1:pos:R:3:forces:R:3 energy=-10.187745462576068 pbc="F F F"
S        0.00000000       0.00000000       0.00000000       0.00000000       0.00000000      -0.06009483
S        0.00000000       0.00000000       5.29454545       0.00000000       0.00000000       0.06009483
2
Properties=species:S:1:pos:R:3:forces:R:3 energy=-10.191296152493303 pbc="F F F"
S        0.00000000       0.00000000       0.00000000       0.00000000       0.00000000      -0.05967295
S        0.00000000       0.00000000       5.35333333       0.00000000       0.00000000       0.05967295
2
Properties=species:S:1:pos:R:3:forces:R:3 energy=-10.194705882734079 pbc="F F F"
S        0.00000000       0.00000000       0.00000000       0.00000000       0.00000000      -0.05686231
S        0.00000000       0.00000000       5.41212121       0.00000000       0.00000000       0.05686231
2
Properties=species:S:1:pos:R:3:forces:R:3 energy=-10.198206501487368 pbc="F F F"
S        0.00000000       0.00000000       0.00000000       0.00000000       0.00000000      -0.06517819
S        0.00000000       0.00000000       5.47090909       0.00000000       0.00000000       0.06517819
2
Properties=species:S:1:pos:R:3:forces:R:3 energy=-10.20262776836891 pbc="F F F"
S        0.00000000       0.00000000       0.00000000       0.00000000       0.00000000      -0.08520673
S        0.00000000       0.00000000       5.52969697       0.00000000       0.00000000       0.08520673
2
Properties=species:S:1:pos:R:3:forces:R:3 energy=-10.207898183939506 pbc="F F F"
S        0.00000000       0.00000000       0.00000000       0.00000000       0.00000000      -0.08974482
S        0.00000000       0.00000000       5.58848485       0.00000000       0.00000000       0.08974482
2
Properties=species:S:1:pos:R:3:forces:R:3 energy=-10.212796082094362 pbc="F F F"
S        0.00000000       0.00000000       0.00000000       0.00000000       0.00000000      -0.07617494
S        0.00000000       0.00000000       5.64727273       0.00000000       0.00000000       0.07617494
2
Properties=species:S:1:pos:R:3:forces:R:3 energy=-10.217116381079796 pbc="F F F"
S        0.00000000       0.00000000       0.00000000       0.00000000       0.00000000      -0.07547514
S        0.00000000       0.00000000       5.70606061       0.00000000       0.00000000       0.07547514
2
Properties=species:S:1:pos:R:3:forces:R:3 energy=-10.222230398434515 pbc="F F F"
S        0.00000000       0.00000000       0.00000000       0.00000000       0.00000000      -0.10029664
S        0.00000000       0.00000000       5.76484848       0.00000000       0.00000000       0.10029664
2
Properties=species:S:1:pos:R:3:forces:R:3 energy=-10.228582458482897 pbc="F F F"
S        0.00000000       0.00000000       0.00000000       0.00000000       0.00000000      -0.10866955
S        0.00000000       0.00000000       5.82363636       0.00000000       0.00000000       0.10866955
2
Properties=species:S:1:pos:R:3:forces:R:3 energy=-10.234012378222497 pbc="F F F"
S        0.00000000       0.00000000       0.00000000       0.00000000       0.00000000      -0.07048712
S        0.00000000       0.00000000       5.88242424       0.00000000       0.00000000       0.07048712
2
Properties=species:S:1:pos:R:3:forces:R:3 energy=-10.236618409105247 pbc="F F F"
S        0.00000000       0.00000000       0.00000000       0.00000000       0.00000000      -0.01980791
S        0.00000000       0.00000000       5.94121212       0.00000000       0.00000000       0.01980791
2
Properties=species:S:1:pos:R:3:forces:R:3 energy=-10.236947822784481 pbc="F F F"
S        0.00000000       0.00000000       0.00000000       0.00000000       0.00000000       0.00152876
S        0.00000000       0.00000000       6.00000000       0.00000000       0.00000000      -0.00152876
