2
Properties=species:S:1:pos:R:3:forces:R:3 energy=-9296.99992326833 pbc="F F F"
Se       0.00000000       0.00000000       0.00000000       0.00000000       0.00000000  -73543.56250000
Se       0.00000000       0.00000000       0.18000000       0.00000000       0.00000000   73543.56250000
2
Properties=species:S:1:pos:R:3:forces:R:3 energy=-11512.34074358083 pbc="F F F"
Se       0.00000000       0.00000000       0.00000000       0.00000000       0.00000000  -10436.97656250
Se       0.00000000       0.00000000       0.23878788       0.00000000       0.00000000   10436.97656250
2
Properties=species:S:1:pos:R:3:forces:R:3 energy=-11077.681563892538 pbc="F F F"
Se       0.00000000       0.00000000       0.00000000       0.00000000       0.00000000   23334.60156250
Se       0.00000000       0.00000000       0.29757576       0.00000000       0.00000000  -23334.60156250
2
Properties=species:S:1:pos:R:3:forces:R:3 energy=-8937.191329517538 pbc="F F F"
Se       0.00000000       0.00000000       0.00000000       0.00000000       0.00000000   47845.65625000
Se       0.00000000       0.00000000       0.35636364       0.00000000       0.00000000  -47845.65625000
2
Properties=species:S:1:pos:R:3:forces:R:3 energy=-5740.786056079245 pbc="F F F"
Se       0.00000000       0.00000000       0.00000000       0.00000000       0.00000000   57549.35546875
Se       0.00000000       0.00000000       0.41515152       0.00000000       0.00000000  -57549.35546875
2
Properties=species:S:1:pos:R:3:forces:R:3 energy=-2614.7499232651617 pbc="F F F"
Se       0.00000000       0.00000000       0.00000000       0.00000000       0.00000000   45279.50781250
Se       0.00000000       0.00000000       0.47393939       0.00000000       0.00000000  -45279.50781250
2
Properties=species:S:1:pos:R:3:forces:R:3 energy=-663.5065150588688 pbc="F F F"
Se       0.00000000       0.00000000       0.00000000       0.00000000       0.00000000   20922.34179688
Se       0.00000000       0.00000000       0.53272727       0.00000000       0.00000000  -20922.34179688
2
Properties=species:S:1:pos:R:3:forces:R:3 energy=0.8467545244932793 pbc="F F F"
Se       0.00000000       0.00000000       0.00000000       0.00000000       0.00000000    2308.85522461
Se       0.00000000       0.00000000       0.59151515       0.00000000       0.00000000   -2308.85522461
2
Properties=species:S:1:pos:R:3:forces:R:3 energy=350.92427109057485 pbc="F F F"
Se       0.00000000       0.00000000       0.00000000       0.00000000       0.00000000   -4800.15966797
Se       0.00000000       0.00000000       0.65030303       0.00000000       0.00000000    4800.15966797
2
Properties=species:S:1:pos:R:3:forces:R:3 energy=122.71508073696964 pbc="F F F"
Se       0.00000000       0.00000000       0.00000000       0.00000000       0.00000000   -3004.61645508
Se       0.00000000       0.00000000       0.70909091       0.00000000       0.00000000    3004.61645508
2
Properties=species:S:1:pos:R:3:forces:R:3 energy=61.88326313377519 pbc="F F F"
Se       0.00000000       0.00000000       0.00000000       0.00000000       0.00000000    -145.05404663
Se       0.00000000       0.00000000       0.76787879       0.00000000       0.00000000     145.05404663
2
Properties=species:S:1:pos:R:3:forces:R:3 energy=74.02298790006654 pbc="F F F"
Se       0.00000000       0.00000000       0.00000000       0.00000000       0.00000000     454.69131470
Se       0.00000000       0.00000000       0.82666667       0.00000000       0.00000000    -454.69131470
2
Properties=species:S:1:pos:R:3:forces:R:3 energy=93.36497555903107 pbc="F F F"
Se       0.00000000       0.00000000       0.00000000       0.00000000       0.00000000     286.81759644
Se       0.00000000       0.00000000       0.88545455       0.00000000       0.00000000    -286.81759644
2
Properties=species:S:1:pos:R:3:forces:R:3 energy=104.29485386200253 pbc="F F F"
Se       0.00000000       0.00000000       0.00000000       0.00000000       0.00000000      44.26585388
Se       0.00000000       0.00000000       0.94424242       0.00000000       0.00000000     -44.26585388
2
Properties=species:S:1:pos:R:3:forces:R:3 energy=97.90529707227157 pbc="F F F"
Se       0.00000000       0.00000000       0.00000000       0.00000000       0.00000000    -235.23200989
Se       0.00000000       0.00000000       1.00303030       0.00000000       0.00000000     235.23200989
2
Properties=species:S:1:pos:R:3:forces:R:3 energy=74.69573299000008 pbc="F F F"
Se       0.00000000       0.00000000       0.00000000       0.00000000       0.00000000    -519.01147461
Se       0.00000000       0.00000000       1.06181818       0.00000000       0.00000000     519.01147461
2
Properties=species:S:1:pos:R:3:forces:R:3 energy=45.11049756298348 pbc="F F F"
Se       0.00000000       0.00000000       0.00000000       0.00000000       0.00000000    -461.31085205
Se       0.00000000       0.00000000       1.12060606       0.00000000       0.00000000     461.31085205
2
Properties=species:S:1:pos:R:3:forces:R:3 energy=23.548814125986095 pbc="F F F"
Se       0.00000000       0.00000000       0.00000000       0.00000000       0.00000000    -253.13534546
Se       0.00000000       0.00000000       1.17939394       0.00000000       0.00000000     253.13534546
2
Properties=species:S:1:pos:R:3:forces:R:3 energy=13.108384721214222 pbc="F F F"
Se       0.00000000       0.00000000       0.00000000       0.00000000       0.00000000    -131.95932007
Se       0.00000000       0.00000000       1.23818182       0.00000000       0.00000000     131.95932007
2
Properties=species:S:1:pos:R:3:forces:R:3 energy=5.976839059462268 pbc="F F F"
Se       0.00000000       0.00000000       0.00000000       0.00000000       0.00000000    -116.89588928
Se       0.00000000       0.00000000       1.29696970       0.00000000       0.00000000     116.89588928
2
Properties=species:S:1:pos:R:3:forces:R:3 energy=-0.7087149935176068 pbc="F F F"
Se       0.00000000       0.00000000       0.00000000       0.00000000       0.00000000    -109.00513458
Se       0.00000000       0.00000000       1.35575758       0.00000000       0.00000000     109.00513458
2
Properties=species:S:1:pos:R:3:forces:R:3 energy=-6.705822889117921 pbc="F F F"
Se       0.00000000       0.00000000       0.00000000       0.00000000       0.00000000     -94.60285950
Se       0.00000000       0.00000000       1.41454545       0.00000000       0.00000000      94.60285950
2
Properties=species:S:1:pos:R:3:forces:R:3 energy=-11.816642008786404 pbc="F F F"
Se       0.00000000       0.00000000       0.00000000       0.00000000       0.00000000     -79.14505768
Se       0.00000000       0.00000000       1.47333333       0.00000000       0.00000000      79.14505768
2
Properties=species:S:1:pos:R:3:forces:R:3 energy=-15.999096217924546 pbc="F F F"
Se       0.00000000       0.00000000       0.00000000       0.00000000       0.00000000     -63.17767715
Se       0.00000000       0.00000000       1.53212121       0.00000000       0.00000000      63.17767715
2
Properties=species:S:1:pos:R:3:forces:R:3 energy=-19.271127916610816 pbc="F F F"
Se       0.00000000       0.00000000       0.00000000       0.00000000       0.00000000     -48.52018356
Se       0.00000000       0.00000000       1.59090909       0.00000000       0.00000000      48.52018356
2
Properties=species:S:1:pos:R:3:forces:R:3 energy=-21.757716093123985 pbc="F F F"
Se       0.00000000       0.00000000       0.00000000       0.00000000       0.00000000     -36.55890656
Se       0.00000000       0.00000000       1.64969697       0.00000000       0.00000000      36.55890656
2
Properties=species:S:1:pos:R:3:forces:R:3 energy=-23.62380536056873 pbc="F F F"
Se       0.00000000       0.00000000       0.00000000       0.00000000       0.00000000     -27.34954834
Se       0.00000000       0.00000000       1.70848485       0.00000000       0.00000000      27.34954834
2
Properties=species:S:1:pos:R:3:forces:R:3 energy=-25.017224735133407 pbc="F F F"
Se       0.00000000       0.00000000       0.00000000       0.00000000       0.00000000     -20.37362289
Se       0.00000000       0.00000000       1.76727273       0.00000000       0.00000000      20.37362289
2
Properties=species:S:1:pos:R:3:forces:R:3 energy=-26.04986116012139 pbc="F F F"
Se       0.00000000       0.00000000       0.00000000       0.00000000       0.00000000     -14.96401024
Se       0.00000000       0.00000000       1.82606061       0.00000000       0.00000000      14.96401024
2
Properties=species:S:1:pos:R:3:forces:R:3 energy=-26.796480720146473 pbc="F F F"
Se       0.00000000       0.00000000       0.00000000       0.00000000       0.00000000     -10.58060741
Se       0.00000000       0.00000000       1.88484848       0.00000000       0.00000000      10.58060741
2
Properties=species:S:1:pos:R:3:forces:R:3 energy=-27.309653731299743 pbc="F F F"
Se       0.00000000       0.00000000       0.00000000       0.00000000       0.00000000      -7.00511932
Se       0.00000000       0.00000000       1.94363636       0.00000000       0.00000000       7.00511932
2
Properties=species:S:1:pos:R:3:forces:R:3 energy=-27.63411317850207 pbc="F F F"
Se       0.00000000       0.00000000       0.00000000       0.00000000       0.00000000      -4.14164019
Se       0.00000000       0.00000000       2.00242424       0.00000000       0.00000000       4.14164019
2
Properties=species:S:1:pos:R:3:forces:R:3 energy=-27.807971623730708 pbc="F F F"
Se       0.00000000       0.00000000       0.00000000       0.00000000       0.00000000      -1.85998678
Se       0.00000000       0.00000000       2.06121212       0.00000000       0.00000000       1.85998678
2
Properties=species:S:1:pos:R:3:forces:R:3 energy=-27.862410334326707 pbc="F F F"
Se       0.00000000       0.00000000       0.00000000       0.00000000       0.00000000      -0.07200104
Se       0.00000000       0.00000000       2.12000000       0.00000000       0.00000000       0.07200104
2
Properties=species:S:1:pos:R:3:forces:R:3 energy=-27.825919327717138 pbc="F F F"
Se       0.00000000       0.00000000       0.00000000       0.00000000       0.00000000       1.23271632
Se       0.00000000       0.00000000       2.17878788       0.00000000       0.00000000      -1.23271632
2
Properties=species:S:1:pos:R:3:forces:R:3 energy=-27.726593736805647 pbc="F F F"
Se       0.00000000       0.00000000       0.00000000       0.00000000       0.00000000       2.07466364
Se       0.00000000       0.00000000       2.23757576       0.00000000       0.00000000      -2.07466364
2
Properties=species:S:1:pos:R:3:forces:R:3 energy=-27.58930342973032 pbc="F F F"
Se       0.00000000       0.00000000       0.00000000       0.00000000       0.00000000       2.54626846
Se       0.00000000       0.00000000       2.29636364       0.00000000       0.00000000      -2.54626846
2
Properties=species:S:1:pos:R:3:forces:R:3 energy=-27.431029418911404 pbc="F F F"
Se       0.00000000       0.00000000       0.00000000       0.00000000       0.00000000       2.82613564
Se       0.00000000       0.00000000       2.35515152       0.00000000       0.00000000      -2.82613564
2
Properties=species:S:1:pos:R:3:forces:R:3 energy=-27.255939167660834 pbc="F F F"
Se       0.00000000       0.00000000       0.00000000       0.00000000       0.00000000       3.15760994
Se       0.00000000       0.00000000       2.41393939       0.00000000       0.00000000      -3.15760994
2
Properties=species:S:1:pos:R:3:forces:R:3 energy=-27.055916791920488 pbc="F F F"
Se       0.00000000       0.00000000       0.00000000       0.00000000       0.00000000       3.67445278
Se       0.00000000       0.00000000       2.47272727       0.00000000       0.00000000      -3.67445278
2
Properties=species:S:1:pos:R:3:forces:R:3 energy=-26.823250737031998 pbc="F F F"
Se       0.00000000       0.00000000       0.00000000       0.00000000       0.00000000       4.21841764
Se       0.00000000       0.00000000       2.53151515       0.00000000       0.00000000      -4.21841764
2
Properties=species:S:1:pos:R:3:forces:R:3 energy=-26.565860127617295 pbc="F F F"
Se       0.00000000       0.00000000       0.00000000       0.00000000       0.00000000       4.46733809
Se       0.00000000       0.00000000       2.59030303       0.00000000       0.00000000      -4.46733809
2
Properties=species:S:1:pos:R:3:forces:R:3 energy=-26.306566199206696 pbc="F F F"
Se       0.00000000       0.00000000       0.00000000       0.00000000       0.00000000       4.29236460
Se       0.00000000       0.00000000       2.64909091       0.00000000       0.00000000      -4.29236460
2
Properties=species:S:1:pos:R:3:forces:R:3 energy=-26.065432080428007 pbc="F F F"
Se       0.00000000       0.00000000       0.00000000       0.00000000       0.00000000       3.90387726
Se       0.00000000       0.00000000       2.70787879       0.00000000       0.00000000      -3.90387726
2
Properties=species:S:1:pos:R:3:forces:R:3 energy=-25.84558750864012 pbc="F F F"
Se       0.00000000       0.00000000       0.00000000       0.00000000       0.00000000       3.60856819
Se       0.00000000       0.00000000       2.76666667       0.00000000       0.00000000      -3.60856819
2
Properties=species:S:1:pos:R:3:forces:R:3 energy=-25.63694807898754 pbc="F F F"
Se       0.00000000       0.00000000       0.00000000       0.00000000       0.00000000       3.51976562
Se       0.00000000       0.00000000       2.82545455       0.00000000       0.00000000      -3.51976562
2
Properties=species:S:1:pos:R:3:forces:R:3 energy=-25.42971746278259 pbc="F F F"
Se       0.00000000       0.00000000       0.00000000       0.00000000       0.00000000       3.53270268
Se       0.00000000       0.00000000       2.88424242       0.00000000       0.00000000      -3.53270268
2
Properties=species:S:1:pos:R:3:forces:R:3 energy=-25.222901819721848 pbc="F F F"
Se       0.00000000       0.00000000       0.00000000       0.00000000       0.00000000       3.48171949
Se       0.00000000       0.00000000       2.94303030       0.00000000       0.00000000      -3.48171949
2
Properties=species:S:1:pos:R:3:forces:R:3 energy=-25.023390513657876 pbc="F F F"
Se       0.00000000       0.00000000       0.00000000       0.00000000       0.00000000       3.27957654
Se       0.00000000       0.00000000       3.00181818       0.00000000       0.00000000      -3.27957654
2
Properties=species:S:1:pos:R:3:forces:R:3 energy=-24.839867602337513 pbc="F F F"
Se       0.00000000       0.00000000       0.00000000       0.00000000       0.00000000       2.94846034
Se       0.00000000       0.00000000       3.06060606       0.00000000       0.00000000      -2.94846034
2
Properties=species:S:1:pos:R:3:forces:R:3 energy=-24.67772304867256 pbc="F F F"
Se       0.00000000       0.00000000       0.00000000       0.00000000       0.00000000       2.56600332
Se       0.00000000       0.00000000       3.11939394       0.00000000       0.00000000      -2.56600332
2
Properties=species:S:1:pos:R:3:forces:R:3 energy=-24.537765294466713 pbc="F F F"
Se       0.00000000       0.00000000       0.00000000       0.00000000       0.00000000       2.20278740
Se       0.00000000       0.00000000       3.17818182       0.00000000       0.00000000      -2.20278740
2
Properties=species:S:1:pos:R:3:forces:R:3 energy=-24.41761368035441 pbc="F F F"
Se       0.00000000       0.00000000       0.00000000       0.00000000       0.00000000       1.89550424
Se       0.00000000       0.00000000       3.23696970       0.00000000       0.00000000      -1.89550424
2
Properties=species:S:1:pos:R:3:forces:R:3 energy=-24.313664936496448 pbc="F F F"
Se       0.00000000       0.00000000       0.00000000       0.00000000       0.00000000       1.65078044
Se       0.00000000       0.00000000       3.29575758       0.00000000       0.00000000      -1.65078044
2
Properties=species:S:1:pos:R:3:forces:R:3 energy=-24.222468423709852 pbc="F F F"
Se       0.00000000       0.00000000       0.00000000       0.00000000       0.00000000       1.45959818
Se       0.00000000       0.00000000       3.35454545       0.00000000       0.00000000      -1.45959818
2
Properties=species:S:1:pos:R:3:forces:R:3 energy=-24.141256319367002 pbc="F F F"
Se       0.00000000       0.00000000       0.00000000       0.00000000       0.00000000       1.30908406
Se       0.00000000       0.00000000       3.41333333       0.00000000       0.00000000      -1.30908406
2
Properties=species:S:1:pos:R:3:forces:R:3 energy=-24.06797604390628 pbc="F F F"
Se       0.00000000       0.00000000       0.00000000       0.00000000       0.00000000       1.18805957
Se       0.00000000       0.00000000       3.47212121       0.00000000       0.00000000      -1.18805957
2
Properties=species:S:1:pos:R:3:forces:R:3 energy=-24.001156805824465 pbc="F F F"
Se       0.00000000       0.00000000       0.00000000       0.00000000       0.00000000       1.08809435
Se       0.00000000       0.00000000       3.53090909       0.00000000       0.00000000      -1.08809435
2
Properties=species:S:1:pos:R:3:forces:R:3 energy=-23.93975504466492 pbc="F F F"
Se       0.00000000       0.00000000       0.00000000       0.00000000       0.00000000       1.00289309
Se       0.00000000       0.00000000       3.58969697       0.00000000       0.00000000      -1.00289309
2
Properties=species:S:1:pos:R:3:forces:R:3 energy=-23.883047646420664 pbc="F F F"
Se       0.00000000       0.00000000       0.00000000       0.00000000       0.00000000       0.92767948
Se       0.00000000       0.00000000       3.64848485       0.00000000       0.00000000      -0.92767948
2
Properties=species:S:1:pos:R:3:forces:R:3 energy=-23.830557567233093 pbc="F F F"
Se       0.00000000       0.00000000       0.00000000       0.00000000       0.00000000       0.85888070
Se       0.00000000       0.00000000       3.70727273       0.00000000       0.00000000      -0.85888070
2
Properties=species:S:1:pos:R:3:forces:R:3 energy=-23.78198706589443 pbc="F F F"
Se       0.00000000       0.00000000       0.00000000       0.00000000       0.00000000       0.79399991
Se       0.00000000       0.00000000       3.76606061       0.00000000       0.00000000      -0.79399991
2
Properties=species:S:1:pos:R:3:forces:R:3 energy=-23.737156660771905 pbc="F F F"
Se       0.00000000       0.00000000       0.00000000       0.00000000       0.00000000       0.73146409
Se       0.00000000       0.00000000       3.82484848       0.00000000       0.00000000      -0.73146409
2
Properties=species:S:1:pos:R:3:forces:R:3 energy=-23.69595559576411 pbc="F F F"
Se       0.00000000       0.00000000       0.00000000       0.00000000       0.00000000       0.67038935
Se       0.00000000       0.00000000       3.88363636       0.00000000       0.00000000      -0.67038935
2
Properties=species:S:1:pos:R:3:forces:R:3 energy=-23.658315075647597 pbc="F F F"
Se       0.00000000       0.00000000       0.00000000       0.00000000       0.00000000       0.61033469
Se       0.00000000       0.00000000       3.94242424       0.00000000       0.00000000      -0.61033469
2
Properties=species:S:1:pos:R:3:forces:R:3 energy=-23.624179699404948 pbc="F F F"
Se       0.00000000       0.00000000       0.00000000       0.00000000       0.00000000       0.55106384
Se       0.00000000       0.00000000       4.00121212       0.00000000       0.00000000      -0.55106384
2
Properties=species:S:1:pos:R:3:forces:R:3 energy=-23.59351127017031 pbc="F F F"
Se       0.00000000       0.00000000       0.00000000       0.00000000       0.00000000       0.49238154
Se       0.00000000       0.00000000       4.06000000       0.00000000       0.00000000      -0.49238154
2
Properties=species:S:1:pos:R:3:forces:R:3 energy=-23.566281169002682 pbc="F F F"
Se       0.00000000       0.00000000       0.00000000       0.00000000       0.00000000       0.43410391
Se       0.00000000       0.00000000       4.11878788       0.00000000       0.00000000      -0.43410391
2
Properties=species:S:1:pos:R:3:forces:R:3 energy=-23.542466535436912 pbc="F F F"
Se       0.00000000       0.00000000       0.00000000       0.00000000       0.00000000       0.37610912
Se       0.00000000       0.00000000       4.17757576       0.00000000       0.00000000      -0.37610912
2
Properties=species:S:1:pos:R:3:forces:R:3 energy=-23.522052191463402 pbc="F F F"
Se       0.00000000       0.00000000       0.00000000       0.00000000       0.00000000       0.31848061
Se       0.00000000       0.00000000       4.23636364       0.00000000       0.00000000      -0.31848061
2
Properties=species:S:1:pos:R:3:forces:R:3 energy=-23.50500584995566 pbc="F F F"
Se       0.00000000       0.00000000       0.00000000       0.00000000       0.00000000       0.26161498
Se       0.00000000       0.00000000       4.29515152       0.00000000       0.00000000      -0.26161498
2
Properties=species:S:1:pos:R:3:forces:R:3 energy=-23.49126284162603 pbc="F F F"
Se       0.00000000       0.00000000       0.00000000       0.00000000       0.00000000       0.20626609
Se       0.00000000       0.00000000       4.35393939       0.00000000       0.00000000      -0.20626609
2
Properties=species:S:1:pos:R:3:forces:R:3 energy=-23.480705143694202 pbc="F F F"
Se       0.00000000       0.00000000       0.00000000       0.00000000       0.00000000       0.15345494
Se       0.00000000       0.00000000       4.41272727       0.00000000       0.00000000      -0.15345494
2
Properties=species:S:1:pos:R:3:forces:R:3 energy=-23.473148046661773 pbc="F F F"
Se       0.00000000       0.00000000       0.00000000       0.00000000       0.00000000       0.10432875
Se       0.00000000       0.00000000       4.47151515       0.00000000       0.00000000      -0.10432875
2
Properties=species:S:1:pos:R:3:forces:R:3 energy=-23.468343934163443 pbc="F F F"
Se       0.00000000       0.00000000       0.00000000       0.00000000       0.00000000       0.05995953
Se       0.00000000       0.00000000       4.53030303       0.00000000       0.00000000      -0.05995953
2
Properties=species:S:1:pos:R:3:forces:R:3 energy=-23.465988026395724 pbc="F F F"
Se       0.00000000       0.00000000       0.00000000       0.00000000       0.00000000       0.02119816
Se       0.00000000       0.00000000       4.58909091       0.00000000       0.00000000      -0.02119816
2
Properties=species:S:1:pos:R:3:forces:R:3 energy=-23.4657317117585 pbc="F F F"
Se       0.00000000       0.00000000       0.00000000       0.00000000       0.00000000      -0.01143875
Se       0.00000000       0.00000000       4.64787879       0.00000000       0.00000000       0.01143875
2
Properties=species:S:1:pos:R:3:forces:R:3 energy=-23.467209276266367 pbc="F F F"
Se       0.00000000       0.00000000       0.00000000       0.00000000       0.00000000      -0.03781615
Se       0.00000000       0.00000000       4.70666667       0.00000000       0.00000000       0.03781615
2
Properties=species:S:1:pos:R:3:forces:R:3 energy=-23.47006074936262 pbc="F F F"
Se       0.00000000       0.00000000       0.00000000       0.00000000       0.00000000      -0.05819926
Se       0.00000000       0.00000000       4.76545455       0.00000000       0.00000000       0.05819926
2
Properties=species:S:1:pos:R:3:forces:R:3 energy=-23.47394908470813 pbc="F F F"
Se       0.00000000       0.00000000       0.00000000       0.00000000       0.00000000      -0.07326300
Se       0.00000000       0.00000000       4.82424242       0.00000000       0.00000000       0.07326300
2
Properties=species:S:1:pos:R:3:forces:R:3 energy=-23.47859067102784 pbc="F F F"
Se       0.00000000       0.00000000       0.00000000       0.00000000       0.00000000      -0.08403180
Se       0.00000000       0.00000000       4.88303030       0.00000000       0.00000000       0.08403180
2
Properties=species:S:1:pos:R:3:forces:R:3 energy=-23.483768662564366 pbc="F F F"
Se       0.00000000       0.00000000       0.00000000       0.00000000       0.00000000      -0.09177979
Se       0.00000000       0.00000000       4.94181818       0.00000000       0.00000000       0.09177979
2
Properties=species:S:1:pos:R:3:forces:R:3 energy=-23.489346331310408 pbc="F F F"
Se       0.00000000       0.00000000       0.00000000       0.00000000       0.00000000      -0.09779660
Se       0.00000000       0.00000000       5.00060606       0.00000000       0.00000000       0.09779660
2
Properties=species:S:1:pos:R:3:forces:R:3 energy=-23.495255623312893 pbc="F F F"
Se       0.00000000       0.00000000       0.00000000       0.00000000       0.00000000      -0.10311194
Se       0.00000000       0.00000000       5.05939394       0.00000000       0.00000000       0.10311194
2
Properties=species:S:1:pos:R:3:forces:R:3 energy=-23.501466611792537 pbc="F F F"
Se       0.00000000       0.00000000       0.00000000       0.00000000       0.00000000      -0.10815004
Se       0.00000000       0.00000000       5.11818182       0.00000000       0.00000000       0.10815004
2
Properties=species:S:1:pos:R:3:forces:R:3 energy=-23.507955080532582 pbc="F F F"
Se       0.00000000       0.00000000       0.00000000       0.00000000       0.00000000      -0.11242568
Se       0.00000000       0.00000000       5.17696970       0.00000000       0.00000000       0.11242568
2
Properties=species:S:1:pos:R:3:forces:R:3 energy=-23.514637666897706 pbc="F F F"
Se       0.00000000       0.00000000       0.00000000       0.00000000       0.00000000      -0.11424470
Se       0.00000000       0.00000000       5.23575758       0.00000000       0.00000000       0.11424470
2
Properties=species:S:1:pos:R:3:forces:R:3 energy=-23.521284103998017 pbc="F F F"
Se       0.00000000       0.00000000       0.00000000       0.00000000       0.00000000      -0.11073922
Se       0.00000000       0.00000000       5.29454545       0.00000000       0.00000000       0.11073922
2
Properties=species:S:1:pos:R:3:forces:R:3 energy=-23.527507691469463 pbc="F F F"
Se       0.00000000       0.00000000       0.00000000       0.00000000       0.00000000      -0.09985327
Se       0.00000000       0.00000000       5.35333333       0.00000000       0.00000000       0.09985327
2
Properties=species:S:1:pos:R:3:forces:R:3 energy=-23.5329751010516 pbc="F F F"
Se       0.00000000       0.00000000       0.00000000       0.00000000       0.00000000      -0.08692642
Se       0.00000000       0.00000000       5.41212121       0.00000000       0.00000000       0.08692642
2
Properties=species:S:1:pos:R:3:forces:R:3 energy=-23.53799954340145 pbc="F F F"
Se       0.00000000       0.00000000       0.00000000       0.00000000       0.00000000      -0.08734344
Se       0.00000000       0.00000000       5.47090909       0.00000000       0.00000000       0.08734344
2
Properties=species:S:1:pos:R:3:forces:R:3 energy=-23.543515984440592 pbc="F F F"
Se       0.00000000       0.00000000       0.00000000       0.00000000       0.00000000      -0.10015626
Se       0.00000000       0.00000000       5.52969697       0.00000000       0.00000000       0.10015626
2
Properties=species:S:1:pos:R:3:forces:R:3 energy=-23.549442725751984 pbc="F F F"
Se       0.00000000       0.00000000       0.00000000       0.00000000       0.00000000      -0.09734128
Se       0.00000000       0.00000000       5.58848485       0.00000000       0.00000000       0.09734128
2
Properties=species:S:1:pos:R:3:forces:R:3 energy=-23.554622279148212 pbc="F F F"
Se       0.00000000       0.00000000       0.00000000       0.00000000       0.00000000      -0.07857547
Se       0.00000000       0.00000000       5.64727273       0.00000000       0.00000000       0.07857547
2
Properties=species:S:1:pos:R:3:forces:R:3 energy=-23.55897285276148 pbc="F F F"
Se       0.00000000       0.00000000       0.00000000       0.00000000       0.00000000      -0.07414974
Se       0.00000000       0.00000000       5.70606061       0.00000000       0.00000000       0.07414974
2
Properties=species:S:1:pos:R:3:forces:R:3 energy=-23.563871732474574 pbc="F F F"
Se       0.00000000       0.00000000       0.00000000       0.00000000       0.00000000      -0.09402840
Se       0.00000000       0.00000000       5.76484848       0.00000000       0.00000000       0.09402840
2
Properties=species:S:1:pos:R:3:forces:R:3 energy=-23.569710065725296 pbc="F F F"
Se       0.00000000       0.00000000       0.00000000       0.00000000       0.00000000      -0.09807575
Se       0.00000000       0.00000000       5.82363636       0.00000000       0.00000000       0.09807575
2
Properties=species:S:1:pos:R:3:forces:R:3 energy=-23.574540544198232 pbc="F F F"
Se       0.00000000       0.00000000       0.00000000       0.00000000       0.00000000      -0.06173580
Se       0.00000000       0.00000000       5.88242424       0.00000000       0.00000000       0.06173580
2
Properties=species:S:1:pos:R:3:forces:R:3 energy=-23.576791576768347 pbc="F F F"
Se       0.00000000       0.00000000       0.00000000       0.00000000       0.00000000      -0.01651997
Se       0.00000000       0.00000000       5.94121212       0.00000000       0.00000000       0.01651997
2
Properties=species:S:1:pos:R:3:forces:R:3 energy=-23.577029670926184 pbc="F F F"
Se       0.00000000       0.00000000       0.00000000       0.00000000       0.00000000       0.00220134
Se       0.00000000       0.00000000       6.00000000       0.00000000       0.00000000      -0.00220134
