2
Properties=species:S:1:pos:R:3:forces:R:3 energy=153281.39407666138 pbc="F F F"
Si       0.00000000       0.00000000       0.00000000       0.00000000       0.00000000 -144770.06250000
Si       0.00000000       0.00000000       0.18000000       0.00000000       0.00000000  144770.06250000
2
Properties=species:S:1:pos:R:3:forces:R:3 energy=139955.75345166138 pbc="F F F"
Si       0.00000000       0.00000000       0.00000000       0.00000000       0.00000000 -328995.96875000
Si       0.00000000       0.00000000       0.23878788       0.00000000       0.00000000  328995.96875000
2
Properties=species:S:1:pos:R:3:forces:R:3 energy=112805.51907666137 pbc="F F F"
Si       0.00000000       0.00000000       0.00000000       0.00000000       0.00000000 -600296.06250000
Si       0.00000000       0.00000000       0.29757576       0.00000000       0.00000000  600296.06250000
2
Properties=species:S:1:pos:R:3:forces:R:3 energy=70858.66751416137 pbc="F F F"
Si       0.00000000       0.00000000       0.00000000       0.00000000       0.00000000 -790880.31250000
Si       0.00000000       0.00000000       0.35636364       0.00000000       0.00000000  790880.31250000
2
Properties=species:S:1:pos:R:3:forces:R:3 energy=26765.606967287957 pbc="F F F"
Si       0.00000000       0.00000000       0.00000000       0.00000000       0.00000000 -636957.31250000
Si       0.00000000       0.00000000       0.41515152       0.00000000       0.00000000  636957.31250000
2
Properties=species:S:1:pos:R:3:forces:R:3 energy=1420.7021821332894 pbc="F F F"
Si       0.00000000       0.00000000       0.00000000       0.00000000       0.00000000 -139827.06250000
Si       0.00000000       0.00000000       0.47393939       0.00000000       0.00000000  139827.06250000
2
Properties=species:S:1:pos:R:3:forces:R:3 energy=-154.42048326564836 pbc="F F F"
Si       0.00000000       0.00000000       0.00000000       0.00000000       0.00000000    -487.48214722
Si       0.00000000       0.00000000       0.53272727       0.00000000       0.00000000     487.48214722
2
Properties=species:S:1:pos:R:3:forces:R:3 energy=-259.4712187329455 pbc="F F F"
Si       0.00000000       0.00000000       0.00000000       0.00000000       0.00000000     856.94293213
Si       0.00000000       0.00000000       0.59151515       0.00000000       0.00000000    -856.94293213
2
Properties=species:S:1:pos:R:3:forces:R:3 energy=-187.72657455523517 pbc="F F F"
Si       0.00000000       0.00000000       0.00000000       0.00000000       0.00000000    1452.69482422
Si       0.00000000       0.00000000       0.65030303       0.00000000       0.00000000   -1452.69482422
2
Properties=species:S:1:pos:R:3:forces:R:3 energy=-102.29399549570088 pbc="F F F"
Si       0.00000000       0.00000000       0.00000000       0.00000000       0.00000000    1278.11865234
Si       0.00000000       0.00000000       0.70909091       0.00000000       0.00000000   -1278.11865234
2
Properties=species:S:1:pos:R:3:forces:R:3 energy=-40.60415324306939 pbc="F F F"
Si       0.00000000       0.00000000       0.00000000       0.00000000       0.00000000     826.05358887
Si       0.00000000       0.00000000       0.76787879       0.00000000       0.00000000    -826.05358887
2
Properties=species:S:1:pos:R:3:forces:R:3 energy=-1.9092803425797447 pbc="F F F"
Si       0.00000000       0.00000000       0.00000000       0.00000000       0.00000000     481.11441040
Si       0.00000000       0.00000000       0.82666667       0.00000000       0.00000000    -481.11441040
2
Properties=species:S:1:pos:R:3:forces:R:3 energy=17.241595764419838 pbc="F F F"
Si       0.00000000       0.00000000       0.00000000       0.00000000       0.00000000     184.47349548
Si       0.00000000       0.00000000       0.88545455       0.00000000       0.00000000    -184.47349548
2
Properties=species:S:1:pos:R:3:forces:R:3 energy=20.851989372537048 pbc="F F F"
Si       0.00000000       0.00000000       0.00000000       0.00000000       0.00000000     -57.87993622
Si       0.00000000       0.00000000       0.94424242       0.00000000       0.00000000      57.87993622
2
Properties=species:S:1:pos:R:3:forces:R:3 energy=17.919654592219988 pbc="F F F"
Si       0.00000000       0.00000000       0.00000000       0.00000000       0.00000000     -24.91734886
Si       0.00000000       0.00000000       1.00303030       0.00000000       0.00000000      24.91734886
2
Properties=species:S:1:pos:R:3:forces:R:3 energy=15.337176226564747 pbc="F F F"
Si       0.00000000       0.00000000       0.00000000       0.00000000       0.00000000     -59.34003067
Si       0.00000000       0.00000000       1.06181818       0.00000000       0.00000000      59.34003067
2
Properties=species:S:1:pos:R:3:forces:R:3 energy=12.406203384246403 pbc="F F F"
Si       0.00000000       0.00000000       0.00000000       0.00000000       0.00000000     -36.02539444
Si       0.00000000       0.00000000       1.12060606       0.00000000       0.00000000      36.02539444
2
Properties=species:S:1:pos:R:3:forces:R:3 energy=11.441413311648871 pbc="F F F"
Si       0.00000000       0.00000000       0.00000000       0.00000000       0.00000000     -12.10351849
Si       0.00000000       0.00000000       1.17939394       0.00000000       0.00000000      12.10351849
2
Properties=species:S:1:pos:R:3:forces:R:3 energy=9.427312635626702 pbc="F F F"
Si       0.00000000       0.00000000       0.00000000       0.00000000       0.00000000     230.17524719
Si       0.00000000       0.00000000       1.23818182       0.00000000       0.00000000    -230.17524719
2
Properties=species:S:1:pos:R:3:forces:R:3 energy=24.410268062024453 pbc="F F F"
Si       0.00000000       0.00000000       0.00000000       0.00000000       0.00000000     122.53916168
Si       0.00000000       0.00000000       1.29696970       0.00000000       0.00000000    -122.53916168
2
Properties=species:S:1:pos:R:3:forces:R:3 energy=25.038419565046244 pbc="F F F"
Si       0.00000000       0.00000000       0.00000000       0.00000000       0.00000000     -78.33496094
Si       0.00000000       0.00000000       1.35575758       0.00000000       0.00000000      78.33496094
2
Properties=species:S:1:pos:R:3:forces:R:3 energy=17.328943792603763 pbc="F F F"
Si       0.00000000       0.00000000       0.00000000       0.00000000       0.00000000    -165.81027222
Si       0.00000000       0.00000000       1.41454545       0.00000000       0.00000000     165.81027222
2
Properties=species:S:1:pos:R:3:forces:R:3 energy=7.737568359128389 pbc="F F F"
Si       0.00000000       0.00000000       0.00000000       0.00000000       0.00000000    -145.12782288
Si       0.00000000       0.00000000       1.47333333       0.00000000       0.00000000     145.12782288
2
Properties=species:S:1:pos:R:3:forces:R:3 energy=1.125133128960967 pbc="F F F"
Si       0.00000000       0.00000000       0.00000000       0.00000000       0.00000000     -80.91737366
Si       0.00000000       0.00000000       1.53212121       0.00000000       0.00000000      80.91737366
2
Properties=species:S:1:pos:R:3:forces:R:3 energy=-2.3564625252839053 pbc="F F F"
Si       0.00000000       0.00000000       0.00000000       0.00000000       0.00000000     -42.92681885
Si       0.00000000       0.00000000       1.59090909       0.00000000       0.00000000      42.92681885
2
Properties=species:S:1:pos:R:3:forces:R:3 energy=-4.398668686194828 pbc="F F F"
Si       0.00000000       0.00000000       0.00000000       0.00000000       0.00000000     -29.40575600
Si       0.00000000       0.00000000       1.64969697       0.00000000       0.00000000      29.40575600
2
Properties=species:S:1:pos:R:3:forces:R:3 energy=-6.058462589375536 pbc="F F F"
Si       0.00000000       0.00000000       0.00000000       0.00000000       0.00000000     -28.52528381
Si       0.00000000       0.00000000       1.70848485       0.00000000       0.00000000      28.52528381
2
Properties=species:S:1:pos:R:3:forces:R:3 energy=-7.847553880570516 pbc="F F F"
Si       0.00000000       0.00000000       0.00000000       0.00000000       0.00000000     -32.31318283
Si       0.00000000       0.00000000       1.76727273       0.00000000       0.00000000      32.31318283
2
Properties=species:S:1:pos:R:3:forces:R:3 energy=-9.736362898170196 pbc="F F F"
Si       0.00000000       0.00000000       0.00000000       0.00000000       0.00000000     -30.10991478
Si       0.00000000       0.00000000       1.82606061       0.00000000       0.00000000      30.10991478
2
Properties=species:S:1:pos:R:3:forces:R:3 energy=-11.18013034805468 pbc="F F F"
Si       0.00000000       0.00000000       0.00000000       0.00000000       0.00000000     -17.99729347
Si       0.00000000       0.00000000       1.88484848       0.00000000       0.00000000      17.99729347
2
Properties=species:S:1:pos:R:3:forces:R:3 energy=-11.882619733393781 pbc="F F F"
Si       0.00000000       0.00000000       0.00000000       0.00000000       0.00000000      -7.25967836
Si       0.00000000       0.00000000       1.94363636       0.00000000       0.00000000       7.25967836
2
Properties=species:S:1:pos:R:3:forces:R:3 energy=-12.191597987429 pbc="F F F"
Si       0.00000000       0.00000000       0.00000000       0.00000000       0.00000000      -3.77102995
Si       0.00000000       0.00000000       2.00242424       0.00000000       0.00000000       3.77102995
2
Properties=species:S:1:pos:R:3:forces:R:3 energy=-12.31686310794445 pbc="F F F"
Si       0.00000000       0.00000000       0.00000000       0.00000000       0.00000000      -0.40383571
Si       0.00000000       0.00000000       2.06121212       0.00000000       0.00000000       0.40383571
2
Properties=species:S:1:pos:R:3:forces:R:3 energy=-12.25799191459355 pbc="F F F"
Si       0.00000000       0.00000000       0.00000000       0.00000000       0.00000000       2.09161091
Si       0.00000000       0.00000000       2.12000000       0.00000000       0.00000000      -2.09161091
2
Properties=species:S:1:pos:R:3:forces:R:3 energy=-12.109492038184321 pbc="F F F"
Si       0.00000000       0.00000000       0.00000000       0.00000000       0.00000000       2.67467666
Si       0.00000000       0.00000000       2.17878788       0.00000000       0.00000000      -2.67467666
2
Properties=species:S:1:pos:R:3:forces:R:3 energy=-11.967933160097243 pbc="F F F"
Si       0.00000000       0.00000000       0.00000000       0.00000000       0.00000000       2.01474428
Si       0.00000000       0.00000000       2.23757576       0.00000000       0.00000000      -2.01474428
2
Properties=species:S:1:pos:R:3:forces:R:3 energy=-11.878992389995283 pbc="F F F"
Si       0.00000000       0.00000000       0.00000000       0.00000000       0.00000000       1.01929092
Si       0.00000000       0.00000000       2.29636364       0.00000000       0.00000000      -1.01929092
2
Properties=species:S:1:pos:R:3:forces:R:3 energy=-11.841700180687731 pbc="F F F"
Si       0.00000000       0.00000000       0.00000000       0.00000000       0.00000000       0.33772981
Si       0.00000000       0.00000000       2.35515152       0.00000000       0.00000000      -0.33772981
2
Properties=species:S:1:pos:R:3:forces:R:3 energy=-11.827125051126382 pbc="F F F"
Si       0.00000000       0.00000000       0.00000000       0.00000000       0.00000000       0.26628479
Si       0.00000000       0.00000000       2.41393939       0.00000000       0.00000000      -0.26628479
2
Properties=species:S:1:pos:R:3:forces:R:3 energy=-11.79820820842447 pbc="F F F"
Si       0.00000000       0.00000000       0.00000000       0.00000000       0.00000000       0.81357449
Si       0.00000000       0.00000000       2.47272727       0.00000000       0.00000000      -0.81357449
2
Properties=species:S:1:pos:R:3:forces:R:3 energy=-11.721773543590404 pbc="F F F"
Si       0.00000000       0.00000000       0.00000000       0.00000000       0.00000000       1.84780145
Si       0.00000000       0.00000000       2.53151515       0.00000000       0.00000000      -1.84780145
2
Properties=species:S:1:pos:R:3:forces:R:3 energy=-11.578265476580079 pbc="F F F"
Si       0.00000000       0.00000000       0.00000000       0.00000000       0.00000000       3.00869799
Si       0.00000000       0.00000000       2.59030303       0.00000000       0.00000000      -3.00869799
2
Properties=species:S:1:pos:R:3:forces:R:3 energy=-11.377081430595865 pbc="F F F"
Si       0.00000000       0.00000000       0.00000000       0.00000000       0.00000000       3.71798944
Si       0.00000000       0.00000000       2.64909091       0.00000000       0.00000000      -3.71798944
2
Properties=species:S:1:pos:R:3:forces:R:3 energy=-11.15605633636705 pbc="F F F"
Si       0.00000000       0.00000000       0.00000000       0.00000000       0.00000000       3.68875766
Si       0.00000000       0.00000000       2.70787879       0.00000000       0.00000000      -3.68875766
2
Properties=species:S:1:pos:R:3:forces:R:3 energy=-10.952223826636217 pbc="F F F"
Si       0.00000000       0.00000000       0.00000000       0.00000000       0.00000000       3.21092582
Si       0.00000000       0.00000000       2.76666667       0.00000000       0.00000000      -3.21092582
2
Properties=species:S:1:pos:R:3:forces:R:3 energy=-10.779032469404417 pbc="F F F"
Si       0.00000000       0.00000000       0.00000000       0.00000000       0.00000000       2.69636416
Si       0.00000000       0.00000000       2.82545455       0.00000000       0.00000000      -2.69636416
2
Properties=species:S:1:pos:R:3:forces:R:3 energy=-10.632708464165006 pbc="F F F"
Si       0.00000000       0.00000000       0.00000000       0.00000000       0.00000000       2.30351210
Si       0.00000000       0.00000000       2.88424242       0.00000000       0.00000000      -2.30351210
2
Properties=species:S:1:pos:R:3:forces:R:3 energy=-10.505890939027084 pbc="F F F"
Si       0.00000000       0.00000000       0.00000000       0.00000000       0.00000000       2.02808857
Si       0.00000000       0.00000000       2.94303030       0.00000000       0.00000000      -2.02808857
2
Properties=species:S:1:pos:R:3:forces:R:3 energy=-10.392485097156717 pbc="F F F"
Si       0.00000000       0.00000000       0.00000000       0.00000000       0.00000000       1.84313202
Si       0.00000000       0.00000000       3.00181818       0.00000000       0.00000000      -1.84313202
2
Properties=species:S:1:pos:R:3:forces:R:3 energy=-10.287875981155349 pbc="F F F"
Si       0.00000000       0.00000000       0.00000000       0.00000000       0.00000000       1.72492063
Si       0.00000000       0.00000000       3.06060606       0.00000000       0.00000000      -1.72492063
2
Properties=species:S:1:pos:R:3:forces:R:3 energy=-10.188799910150566 pbc="F F F"
Si       0.00000000       0.00000000       0.00000000       0.00000000       0.00000000       1.65168166
Si       0.00000000       0.00000000       3.11939394       0.00000000       0.00000000      -1.65168166
2
Properties=species:S:1:pos:R:3:forces:R:3 energy=-10.093108982748246 pbc="F F F"
Si       0.00000000       0.00000000       0.00000000       0.00000000       0.00000000       1.60774577
Si       0.00000000       0.00000000       3.17818182       0.00000000       0.00000000      -1.60774577
2
Properties=species:S:1:pos:R:3:forces:R:3 energy=-9.999381066683066 pbc="F F F"
Si       0.00000000       0.00000000       0.00000000       0.00000000       0.00000000       1.58362675
Si       0.00000000       0.00000000       3.23696970       0.00000000       0.00000000      -1.58362675
2
Properties=species:S:1:pos:R:3:forces:R:3 energy=-9.906666091036309 pbc="F F F"
Si       0.00000000       0.00000000       0.00000000       0.00000000       0.00000000       1.57205045
Si       0.00000000       0.00000000       3.29575758       0.00000000       0.00000000      -1.57205045
2
Properties=species:S:1:pos:R:3:forces:R:3 energy=-9.814451065821158 pbc="F F F"
Si       0.00000000       0.00000000       0.00000000       0.00000000       0.00000000       1.56529212
Si       0.00000000       0.00000000       3.35454545       0.00000000       0.00000000      -1.56529212
2
Properties=species:S:1:pos:R:3:forces:R:3 energy=-9.72268650276753 pbc="F F F"
Si       0.00000000       0.00000000       0.00000000       0.00000000       0.00000000       1.55546713
Si       0.00000000       0.00000000       3.41333333       0.00000000       0.00000000      -1.55546713
2
Properties=species:S:1:pos:R:3:forces:R:3 energy=-9.63175057959538 pbc="F F F"
Si       0.00000000       0.00000000       0.00000000       0.00000000       0.00000000       1.53635442
Si       0.00000000       0.00000000       3.47212121       0.00000000       0.00000000      -1.53635442
2
Properties=species:S:1:pos:R:3:forces:R:3 energy=-9.542293925519953 pbc="F F F"
Si       0.00000000       0.00000000       0.00000000       0.00000000       0.00000000       1.50489104
Si       0.00000000       0.00000000       3.53090909       0.00000000       0.00000000      -1.50489104
2
Properties=species:S:1:pos:R:3:forces:R:3 energy=-9.455046128319792 pbc="F F F"
Si       0.00000000       0.00000000       0.00000000       0.00000000       0.00000000       1.46149039
Si       0.00000000       0.00000000       3.58969697       0.00000000       0.00000000      -1.46149039
2
Properties=species:S:1:pos:R:3:forces:R:3 energy=-9.37063177022832 pbc="F F F"
Si       0.00000000       0.00000000       0.00000000       0.00000000       0.00000000       1.40921235
Si       0.00000000       0.00000000       3.64848485       0.00000000       0.00000000      -1.40921235
2
Properties=species:S:1:pos:R:3:forces:R:3 energy=-9.289449354853222 pbc="F F F"
Si       0.00000000       0.00000000       0.00000000       0.00000000       0.00000000       1.35232186
Si       0.00000000       0.00000000       3.70727273       0.00000000       0.00000000      -1.35232186
2
Properties=species:S:1:pos:R:3:forces:R:3 energy=-9.211640814148934 pbc="F F F"
Si       0.00000000       0.00000000       0.00000000       0.00000000       0.00000000       1.29493940
Si       0.00000000       0.00000000       3.76606061       0.00000000       0.00000000      -1.29493940
2
Properties=species:S:1:pos:R:3:forces:R:3 energy=-9.137143989014449 pbc="F F F"
Si       0.00000000       0.00000000       0.00000000       0.00000000       0.00000000       1.24013627
Si       0.00000000       0.00000000       3.82484848       0.00000000       0.00000000      -1.24013627
2
Properties=species:S:1:pos:R:3:forces:R:3 energy=-9.065747006944331 pbc="F F F"
Si       0.00000000       0.00000000       0.00000000       0.00000000       0.00000000       1.18956220
Si       0.00000000       0.00000000       3.88363636       0.00000000       0.00000000      -1.18956220
2
Properties=species:S:1:pos:R:3:forces:R:3 energy=-8.997189382593625 pbc="F F F"
Si       0.00000000       0.00000000       0.00000000       0.00000000       0.00000000       1.14352667
Si       0.00000000       0.00000000       3.94242424       0.00000000       0.00000000      -1.14352667
2
Properties=species:S:1:pos:R:3:forces:R:3 energy=-8.931222111139126 pbc="F F F"
Si       0.00000000       0.00000000       0.00000000       0.00000000       0.00000000       1.10128379
Si       0.00000000       0.00000000       4.00121212       0.00000000       0.00000000      -1.10128379
2
Properties=species:S:1:pos:R:3:forces:R:3 energy=-8.867660121950701 pbc="F F F"
Si       0.00000000       0.00000000       0.00000000       0.00000000       0.00000000       1.06138206
Si       0.00000000       0.00000000       4.06000000       0.00000000       0.00000000      -1.06138206
2
Properties=species:S:1:pos:R:3:forces:R:3 energy=-8.806418547517655 pbc="F F F"
Si       0.00000000       0.00000000       0.00000000       0.00000000       0.00000000       1.02203703
Si       0.00000000       0.00000000       4.11878788       0.00000000       0.00000000      -1.02203703
2
Properties=species:S:1:pos:R:3:forces:R:3 energy=-8.747518419360103 pbc="F F F"
Si       0.00000000       0.00000000       0.00000000       0.00000000       0.00000000       0.98140925
Si       0.00000000       0.00000000       4.17757576       0.00000000       0.00000000      -0.98140925
2
Properties=species:S:1:pos:R:3:forces:R:3 energy=-8.691083844227931 pbc="F F F"
Si       0.00000000       0.00000000       0.00000000       0.00000000       0.00000000       0.93791348
Si       0.00000000       0.00000000       4.23636364       0.00000000       0.00000000      -0.93791348
2
Properties=species:S:1:pos:R:3:forces:R:3 energy=-8.637320062463917 pbc="F F F"
Si       0.00000000       0.00000000       0.00000000       0.00000000       0.00000000       0.89040214
Si       0.00000000       0.00000000       4.29515152       0.00000000       0.00000000      -0.89040214
2
Properties=species:S:1:pos:R:3:forces:R:3 energy=-8.586484836982285 pbc="F F F"
Si       0.00000000       0.00000000       0.00000000       0.00000000       0.00000000       0.83833295
Si       0.00000000       0.00000000       4.35393939       0.00000000       0.00000000      -0.83833295
2
Properties=species:S:1:pos:R:3:forces:R:3 energy=-8.538842685613023 pbc="F F F"
Si       0.00000000       0.00000000       0.00000000       0.00000000       0.00000000       0.78177172
Si       0.00000000       0.00000000       4.41272727       0.00000000       0.00000000      -0.78177172
2
Properties=species:S:1:pos:R:3:forces:R:3 energy=-8.494642941840887 pbc="F F F"
Si       0.00000000       0.00000000       0.00000000       0.00000000       0.00000000       0.72130769
Si       0.00000000       0.00000000       4.47151515       0.00000000       0.00000000      -0.72130769
2
Properties=species:S:1:pos:R:3:forces:R:3 energy=-8.454091146159799 pbc="F F F"
Si       0.00000000       0.00000000       0.00000000       0.00000000       0.00000000       0.65788919
Si       0.00000000       0.00000000       4.53030303       0.00000000       0.00000000      -0.65788919
2
Properties=species:S:1:pos:R:3:forces:R:3 energy=-8.417329026039818 pbc="F F F"
Si       0.00000000       0.00000000       0.00000000       0.00000000       0.00000000       0.59257048
Si       0.00000000       0.00000000       4.58909091       0.00000000       0.00000000      -0.59257048
2
Properties=species:S:1:pos:R:3:forces:R:3 energy=-8.384438286073783 pbc="F F F"
Si       0.00000000       0.00000000       0.00000000       0.00000000       0.00000000       0.52634305
Si       0.00000000       0.00000000       4.64787879       0.00000000       0.00000000      -0.52634305
2
Properties=species:S:1:pos:R:3:forces:R:3 energy=-8.355445385852349 pbc="F F F"
Si       0.00000000       0.00000000       0.00000000       0.00000000       0.00000000       0.46003056
Si       0.00000000       0.00000000       4.70666667       0.00000000       0.00000000      -0.46003056
2
Properties=species:S:1:pos:R:3:forces:R:3 energy=-8.330335833199417 pbc="F F F"
Si       0.00000000       0.00000000       0.00000000       0.00000000       0.00000000       0.39439389
Si       0.00000000       0.00000000       4.76545455       0.00000000       0.00000000      -0.39439389
2
Properties=species:S:1:pos:R:3:forces:R:3 energy=-8.3090427297849 pbc="F F F"
Si       0.00000000       0.00000000       0.00000000       0.00000000       0.00000000       0.33030468
Si       0.00000000       0.00000000       4.82424242       0.00000000       0.00000000      -0.33030468
2
Properties=species:S:1:pos:R:3:forces:R:3 energy=-8.291445811114775 pbc="F F F"
Si       0.00000000       0.00000000       0.00000000       0.00000000       0.00000000       0.26904979
Si       0.00000000       0.00000000       4.88303030       0.00000000       0.00000000      -0.26904979
2
Properties=species:S:1:pos:R:3:forces:R:3 energy=-8.277319929111055 pbc="F F F"
Si       0.00000000       0.00000000       0.00000000       0.00000000       0.00000000       0.21241780
Si       0.00000000       0.00000000       4.94181818       0.00000000       0.00000000      -0.21241780
2
Properties=species:S:1:pos:R:3:forces:R:3 energy=-8.266334088142052 pbc="F F F"
Si       0.00000000       0.00000000       0.00000000       0.00000000       0.00000000       0.16269296
Si       0.00000000       0.00000000       5.00060606       0.00000000       0.00000000      -0.16269296
2
Properties=species:S:1:pos:R:3:forces:R:3 energy=-8.258011393076961 pbc="F F F"
Si       0.00000000       0.00000000       0.00000000       0.00000000       0.00000000       0.12211768
Si       0.00000000       0.00000000       5.05939394       0.00000000       0.00000000      -0.12211768
2
Properties=species:S:1:pos:R:3:forces:R:3 energy=-8.251766209322058 pbc="F F F"
Si       0.00000000       0.00000000       0.00000000       0.00000000       0.00000000       0.09217829
Si       0.00000000       0.00000000       5.11818182       0.00000000       0.00000000      -0.09217829
2
Properties=species:S:1:pos:R:3:forces:R:3 energy=-8.246966145315634 pbc="F F F"
Si       0.00000000       0.00000000       0.00000000       0.00000000       0.00000000       0.07278906
Si       0.00000000       0.00000000       5.17696970       0.00000000       0.00000000      -0.07278906
2
Properties=species:S:1:pos:R:3:forces:R:3 energy=-8.243040784071338 pbc="F F F"
Si       0.00000000       0.00000000       0.00000000       0.00000000       0.00000000       0.06190554
Si       0.00000000       0.00000000       5.23575758       0.00000000       0.00000000      -0.06190554
2
Properties=species:S:1:pos:R:3:forces:R:3 energy=-8.23959225871374 pbc="F F F"
Si       0.00000000       0.00000000       0.00000000       0.00000000       0.00000000       0.05586596
Si       0.00000000       0.00000000       5.29454545       0.00000000       0.00000000      -0.05586596
2
Properties=species:S:1:pos:R:3:forces:R:3 energy=-8.236453453538115 pbc="F F F"
Si       0.00000000       0.00000000       0.00000000       0.00000000       0.00000000       0.05084358
Si       0.00000000       0.00000000       5.35333333       0.00000000       0.00000000      -0.05084358
2
Properties=species:S:1:pos:R:3:forces:R:3 energy=-8.233621229385266 pbc="F F F"
Si       0.00000000       0.00000000       0.00000000       0.00000000       0.00000000       0.04569008
Si       0.00000000       0.00000000       5.41212121       0.00000000       0.00000000      -0.04569008
2
Properties=species:S:1:pos:R:3:forces:R:3 energy=-8.231005591061235 pbc="F F F"
Si       0.00000000       0.00000000       0.00000000       0.00000000       0.00000000       0.04437468
Si       0.00000000       0.00000000       5.47090909       0.00000000       0.00000000      -0.04437468
2
Properties=species:S:1:pos:R:3:forces:R:3 energy=-8.228280925627285 pbc="F F F"
Si       0.00000000       0.00000000       0.00000000       0.00000000       0.00000000       0.04878817
Si       0.00000000       0.00000000       5.52969697       0.00000000       0.00000000      -0.04878817
2
Properties=species:S:1:pos:R:3:forces:R:3 energy=-8.225312286107833 pbc="F F F"
Si       0.00000000       0.00000000       0.00000000       0.00000000       0.00000000       0.05136639
Si       0.00000000       0.00000000       5.58848485       0.00000000       0.00000000      -0.05136639
2
Properties=species:S:1:pos:R:3:forces:R:3 energy=-8.222324193428356 pbc="F F F"
Si       0.00000000       0.00000000       0.00000000       0.00000000       0.00000000       0.04999128
Si       0.00000000       0.00000000       5.64727273       0.00000000       0.00000000      -0.04999128
2
Properties=species:S:1:pos:R:3:forces:R:3 energy=-8.219440957871315 pbc="F F F"
Si       0.00000000       0.00000000       0.00000000       0.00000000       0.00000000       0.04809637
Si       0.00000000       0.00000000       5.70606061       0.00000000       0.00000000      -0.04809637
2
Properties=species:S:1:pos:R:3:forces:R:3 energy=-8.216712448477555 pbc="F F F"
Si       0.00000000       0.00000000       0.00000000       0.00000000       0.00000000       0.04339759
Si       0.00000000       0.00000000       5.76484848       0.00000000       0.00000000      -0.04339759
2
Properties=species:S:1:pos:R:3:forces:R:3 energy=-8.21452892672277 pbc="F F F"
Si       0.00000000       0.00000000       0.00000000       0.00000000       0.00000000       0.02955825
Si       0.00000000       0.00000000       5.82363636       0.00000000       0.00000000      -0.02955825
2
Properties=species:S:1:pos:R:3:forces:R:3 energy=-8.213272010429208 pbc="F F F"
Si       0.00000000       0.00000000       0.00000000       0.00000000       0.00000000       0.01419093
Si       0.00000000       0.00000000       5.88242424       0.00000000       0.00000000      -0.01419093
2
Properties=species:S:1:pos:R:3:forces:R:3 energy=-8.212716730660683 pbc="F F F"
Si       0.00000000       0.00000000       0.00000000       0.00000000       0.00000000       0.00581421
Si       0.00000000       0.00000000       5.94121212       0.00000000       0.00000000      -0.00581421
2
Properties=species:S:1:pos:R:3:forces:R:3 energy=-8.212474985527972 pbc="F F F"
Si       0.00000000       0.00000000       0.00000000       0.00000000       0.00000000       0.00325424
Si       0.00000000       0.00000000       6.00000000       0.00000000       0.00000000      -0.00325424
