2
Properties=species:S:1:pos:R:3:forces:R:3 energy=222357.51795410793 pbc="F F F"
Tb       0.00000000       0.00000000       0.00000000       0.00000000       0.00000000 -236837.60937500
Tb       0.00000000       0.00000000       0.18000000       0.00000000       0.00000000  236837.60937500
2
Properties=species:S:1:pos:R:3:forces:R:3 energy=212491.62732910793 pbc="F F F"
Tb       0.00000000       0.00000000       0.00000000       0.00000000       0.00000000 -133516.48437500
Tb       0.00000000       0.00000000       0.23878788       0.00000000       0.00000000  133516.48437500
2
Properties=species:S:1:pos:R:3:forces:R:3 energy=204230.93982910793 pbc="F F F"
Tb       0.00000000       0.00000000       0.00000000       0.00000000       0.00000000 -161081.68750000
Tb       0.00000000       0.00000000       0.29757576       0.00000000       0.00000000  161081.68750000
2
Properties=species:S:1:pos:R:3:forces:R:3 energy=192290.03357910793 pbc="F F F"
Tb       0.00000000       0.00000000       0.00000000       0.00000000       0.00000000 -254162.46875000
Tb       0.00000000       0.00000000       0.35636364       0.00000000       0.00000000  254162.46875000
2
Properties=species:S:1:pos:R:3:forces:R:3 energy=173499.95545410793 pbc="F F F"
Tb       0.00000000       0.00000000       0.00000000       0.00000000       0.00000000 -390121.34375000
Tb       0.00000000       0.00000000       0.41515152       0.00000000       0.00000000  390121.34375000
2
Properties=species:S:1:pos:R:3:forces:R:3 energy=146135.04920410793 pbc="F F F"
Tb       0.00000000       0.00000000       0.00000000       0.00000000       0.00000000 -539765.06250000
Tb       0.00000000       0.00000000       0.47393939       0.00000000       0.00000000  539765.06250000
2
Properties=species:S:1:pos:R:3:forces:R:3 energy=110720.66639161111 pbc="F F F"
Tb       0.00000000       0.00000000       0.00000000       0.00000000       0.00000000 -654059.37500000
Tb       0.00000000       0.00000000       0.53272727       0.00000000       0.00000000  654059.37500000
2
Properties=species:S:1:pos:R:3:forces:R:3 energy=71137.92420411427 pbc="F F F"
Tb       0.00000000       0.00000000       0.00000000       0.00000000       0.00000000 -671730.56250000
Tb       0.00000000       0.00000000       0.59151515       0.00000000       0.00000000  671730.56250000
2
Properties=species:S:1:pos:R:3:forces:R:3 energy=34486.365610367444 pbc="F F F"
Tb       0.00000000       0.00000000       0.00000000       0.00000000       0.00000000 -551742.56250000
Tb       0.00000000       0.00000000       0.65030303       0.00000000       0.00000000  551742.56250000
2
Properties=species:S:1:pos:R:3:forces:R:3 energy=8519.641000998778 pbc="F F F"
Tb       0.00000000       0.00000000       0.00000000       0.00000000       0.00000000 -319957.31250000
Tb       0.00000000       0.00000000       0.70909091       0.00000000       0.00000000  319957.31250000
2
Properties=species:S:1:pos:R:3:forces:R:3 energy=-3039.9664208667186 pbc="F F F"
Tb       0.00000000       0.00000000       0.00000000       0.00000000       0.00000000  -84103.27343750
Tb       0.00000000       0.00000000       0.76787879       0.00000000       0.00000000   84103.27343750
2
Properties=species:S:1:pos:R:3:forces:R:3 energy=-3692.975698197797 pbc="F F F"
Tb       0.00000000       0.00000000       0.00000000       0.00000000       0.00000000   37344.17187500
Tb       0.00000000       0.00000000       0.82666667       0.00000000       0.00000000  -37344.17187500
2
Properties=species:S:1:pos:R:3:forces:R:3 energy=-291.8049828467591 pbc="F F F"
Tb       0.00000000       0.00000000       0.00000000       0.00000000       0.00000000   19615.69531250
Tb       0.00000000       0.00000000       0.88545455       0.00000000       0.00000000  -19615.69531250
2
Properties=species:S:1:pos:R:3:forces:R:3 energy=-60.028424895885415 pbc="F F F"
Tb       0.00000000       0.00000000       0.00000000       0.00000000       0.00000000     546.60607910
Tb       0.00000000       0.00000000       0.94424242       0.00000000       0.00000000    -546.60607910
2
Properties=species:S:1:pos:R:3:forces:R:3 energy=-55.57150041939499 pbc="F F F"
Tb       0.00000000       0.00000000       0.00000000       0.00000000       0.00000000      -9.22983551
Tb       0.00000000       0.00000000       1.00303030       0.00000000       0.00000000       9.22983551
2
Properties=species:S:1:pos:R:3:forces:R:3 energy=-49.38728864092062 pbc="F F F"
Tb       0.00000000       0.00000000       0.00000000       0.00000000       0.00000000     -26.91044235
Tb       0.00000000       0.00000000       1.06181818       0.00000000       0.00000000      26.91044235
2
Properties=species:S:1:pos:R:3:forces:R:3 energy=-50.88963079534963 pbc="F F F"
Tb       0.00000000       0.00000000       0.00000000       0.00000000       0.00000000     -36.06784821
Tb       0.00000000       0.00000000       1.12060606       0.00000000       0.00000000      36.06784821
2
Properties=species:S:1:pos:R:3:forces:R:3 energy=-53.44464245908601 pbc="F F F"
Tb       0.00000000       0.00000000       0.00000000       0.00000000       0.00000000     -46.22385025
Tb       0.00000000       0.00000000       1.17939394       0.00000000       0.00000000      46.22385025
2
Properties=species:S:1:pos:R:3:forces:R:3 energy=-56.07780198566341 pbc="F F F"
Tb       0.00000000       0.00000000       0.00000000       0.00000000       0.00000000     -42.64766693
Tb       0.00000000       0.00000000       1.23818182       0.00000000       0.00000000      42.64766693
2
Properties=species:S:1:pos:R:3:forces:R:3 energy=-58.38068117660751 pbc="F F F"
Tb       0.00000000       0.00000000       0.00000000       0.00000000       0.00000000     -35.41701508
Tb       0.00000000       0.00000000       1.29696970       0.00000000       0.00000000      35.41701508
2
Properties=species:S:1:pos:R:3:forces:R:3 energy=-60.272519069772116 pbc="F F F"
Tb       0.00000000       0.00000000       0.00000000       0.00000000       0.00000000     -29.36856079
Tb       0.00000000       0.00000000       1.35575758       0.00000000       0.00000000      29.36856079
2
Properties=species:S:1:pos:R:3:forces:R:3 energy=-61.86612388952847 pbc="F F F"
Tb       0.00000000       0.00000000       0.00000000       0.00000000       0.00000000     -25.03085709
Tb       0.00000000       0.00000000       1.41454545       0.00000000       0.00000000      25.03085709
2
Properties=species:S:1:pos:R:3:forces:R:3 energy=-63.23805659732638 pbc="F F F"
Tb       0.00000000       0.00000000       0.00000000       0.00000000       0.00000000     -21.82769394
Tb       0.00000000       0.00000000       1.47333333       0.00000000       0.00000000      21.82769394
2
Properties=species:S:1:pos:R:3:forces:R:3 energy=-64.44577415387722 pbc="F F F"
Tb       0.00000000       0.00000000       0.00000000       0.00000000       0.00000000     -19.28554344
Tb       0.00000000       0.00000000       1.53212121       0.00000000       0.00000000      19.28554344
2
Properties=species:S:1:pos:R:3:forces:R:3 energy=-65.50162091002909 pbc="F F F"
Tb       0.00000000       0.00000000       0.00000000       0.00000000       0.00000000     -16.56504440
Tb       0.00000000       0.00000000       1.59090909       0.00000000       0.00000000      16.56504440
2
Properties=species:S:1:pos:R:3:forces:R:3 energy=-66.38379204037257 pbc="F F F"
Tb       0.00000000       0.00000000       0.00000000       0.00000000       0.00000000     -13.37390327
Tb       0.00000000       0.00000000       1.64969697       0.00000000       0.00000000      13.37390327
2
Properties=species:S:1:pos:R:3:forces:R:3 energy=-67.07239770386121 pbc="F F F"
Tb       0.00000000       0.00000000       0.00000000       0.00000000       0.00000000     -10.12841606
Tb       0.00000000       0.00000000       1.70848485       0.00000000       0.00000000      10.12841606
2
Properties=species:S:1:pos:R:3:forces:R:3 energy=-67.59501051649185 pbc="F F F"
Tb       0.00000000       0.00000000       0.00000000       0.00000000       0.00000000      -7.89973783
Tb       0.00000000       0.00000000       1.76727273       0.00000000       0.00000000       7.89973783
2
Properties=species:S:1:pos:R:3:forces:R:3 energy=-68.03295217239834 pbc="F F F"
Tb       0.00000000       0.00000000       0.00000000       0.00000000       0.00000000      -7.25275469
Tb       0.00000000       0.00000000       1.82606061       0.00000000       0.00000000       7.25275469
2
Properties=species:S:1:pos:R:3:forces:R:3 energy=-68.4700773310345 pbc="F F F"
Tb       0.00000000       0.00000000       0.00000000       0.00000000       0.00000000      -7.72492933
Tb       0.00000000       0.00000000       1.88484848       0.00000000       0.00000000       7.72492933
2
Properties=species:S:1:pos:R:3:forces:R:3 energy=-68.94339615992888 pbc="F F F"
Tb       0.00000000       0.00000000       0.00000000       0.00000000       0.00000000      -8.32118130
Tb       0.00000000       0.00000000       1.94363636       0.00000000       0.00000000       8.32118130
2
Properties=species:S:1:pos:R:3:forces:R:3 energy=-69.43702423432484 pbc="F F F"
Tb       0.00000000       0.00000000       0.00000000       0.00000000       0.00000000      -8.35989285
Tb       0.00000000       0.00000000       2.00242424       0.00000000       0.00000000       8.35989285
2
Properties=species:S:1:pos:R:3:forces:R:3 energy=-69.91459221148494 pbc="F F F"
Tb       0.00000000       0.00000000       0.00000000       0.00000000       0.00000000      -7.81070900
Tb       0.00000000       0.00000000       2.06121212       0.00000000       0.00000000       7.81070900
2
Properties=species:S:1:pos:R:3:forces:R:3 energy=-70.34958028434039 pbc="F F F"
Tb       0.00000000       0.00000000       0.00000000       0.00000000       0.00000000      -6.96338034
Tb       0.00000000       0.00000000       2.12000000       0.00000000       0.00000000       6.96338034
2
Properties=species:S:1:pos:R:3:forces:R:3 energy=-70.73271106795947 pbc="F F F"
Tb       0.00000000       0.00000000       0.00000000       0.00000000       0.00000000      -6.08150244
Tb       0.00000000       0.00000000       2.17878788       0.00000000       0.00000000       6.08150244
2
Properties=species:S:1:pos:R:3:forces:R:3 energy=-71.0672193939452 pbc="F F F"
Tb       0.00000000       0.00000000       0.00000000       0.00000000       0.00000000      -5.32999563
Tb       0.00000000       0.00000000       2.23757576       0.00000000       0.00000000       5.32999563
2
Properties=species:S:1:pos:R:3:forces:R:3 energy=-71.36354223600249 pbc="F F F"
Tb       0.00000000       0.00000000       0.00000000       0.00000000       0.00000000      -4.78621626
Tb       0.00000000       0.00000000       2.29636364       0.00000000       0.00000000       4.78621626
2
Properties=species:S:1:pos:R:3:forces:R:3 energy=-71.63322282370758 pbc="F F F"
Tb       0.00000000       0.00000000       0.00000000       0.00000000       0.00000000      -4.40493727
Tb       0.00000000       0.00000000       2.35515152       0.00000000       0.00000000       4.40493727
2
Properties=species:S:1:pos:R:3:forces:R:3 energy=-71.88175427360568 pbc="F F F"
Tb       0.00000000       0.00000000       0.00000000       0.00000000       0.00000000      -4.03963852
Tb       0.00000000       0.00000000       2.41393939       0.00000000       0.00000000       4.03963852
2
Properties=species:S:1:pos:R:3:forces:R:3 energy=-72.10595507749206 pbc="F F F"
Tb       0.00000000       0.00000000       0.00000000       0.00000000       0.00000000      -3.56419659
Tb       0.00000000       0.00000000       2.47272727       0.00000000       0.00000000       3.56419659
2
Properties=species:S:1:pos:R:3:forces:R:3 energy=-72.29820341320922 pbc="F F F"
Tb       0.00000000       0.00000000       0.00000000       0.00000000       0.00000000      -2.95782208
Tb       0.00000000       0.00000000       2.53151515       0.00000000       0.00000000       2.95782208
2
Properties=species:S:1:pos:R:3:forces:R:3 energy=-72.45221260897827 pbc="F F F"
Tb       0.00000000       0.00000000       0.00000000       0.00000000       0.00000000      -2.27467752
Tb       0.00000000       0.00000000       2.59030303       0.00000000       0.00000000       2.27467752
2
Properties=species:S:1:pos:R:3:forces:R:3 energy=-72.56537331683485 pbc="F F F"
Tb       0.00000000       0.00000000       0.00000000       0.00000000       0.00000000      -1.57682860
Tb       0.00000000       0.00000000       2.64909091       0.00000000       0.00000000       1.57682860
2
Properties=species:S:1:pos:R:3:forces:R:3 energy=-72.63818141257744 pbc="F F F"
Tb       0.00000000       0.00000000       0.00000000       0.00000000       0.00000000      -0.90790260
Tb       0.00000000       0.00000000       2.70787879       0.00000000       0.00000000       0.90790260
2
Properties=species:S:1:pos:R:3:forces:R:3 energy=-72.6733299901122 pbc="F F F"
Tb       0.00000000       0.00000000       0.00000000       0.00000000       0.00000000      -0.30064383
Tb       0.00000000       0.00000000       2.76666667       0.00000000       0.00000000       0.30064383
2
Properties=species:S:1:pos:R:3:forces:R:3 energy=-72.67532792974025 pbc="F F F"
Tb       0.00000000       0.00000000       0.00000000       0.00000000       0.00000000       0.21534182
Tb       0.00000000       0.00000000       2.82545455       0.00000000       0.00000000      -0.21534182
2
Properties=species:S:1:pos:R:3:forces:R:3 energy=-72.65024814397728 pbc="F F F"
Tb       0.00000000       0.00000000       0.00000000       0.00000000       0.00000000       0.61764103
Tb       0.00000000       0.00000000       2.88424242       0.00000000       0.00000000      -0.61764103
2
Properties=species:S:1:pos:R:3:forces:R:3 energy=-72.60507143061689 pbc="F F F"
Tb       0.00000000       0.00000000       0.00000000       0.00000000       0.00000000       0.89988601
Tb       0.00000000       0.00000000       2.94303030       0.00000000       0.00000000      -0.89988601
2
Properties=species:S:1:pos:R:3:forces:R:3 energy=-72.54654208572568 pbc="F F F"
Tb       0.00000000       0.00000000       0.00000000       0.00000000       0.00000000       1.07539749
Tb       0.00000000       0.00000000       3.00181818       0.00000000       0.00000000      -1.07539749
2
Properties=species:S:1:pos:R:3:forces:R:3 energy=-72.48021420398427 pbc="F F F"
Tb       0.00000000       0.00000000       0.00000000       0.00000000       0.00000000       1.17014897
Tb       0.00000000       0.00000000       3.06060606       0.00000000       0.00000000      -1.17014897
2
Properties=species:S:1:pos:R:3:forces:R:3 energy=-72.4100625637271 pbc="F F F"
Tb       0.00000000       0.00000000       0.00000000       0.00000000       0.00000000       1.20841289
Tb       0.00000000       0.00000000       3.11939394       0.00000000       0.00000000      -1.20841289
2
Properties=species:S:1:pos:R:3:forces:R:3 energy=-72.33899385656461 pbc="F F F"
Tb       0.00000000       0.00000000       0.00000000       0.00000000       0.00000000       1.20209503
Tb       0.00000000       0.00000000       3.17818182       0.00000000       0.00000000      -1.20209503
2
Properties=species:S:1:pos:R:3:forces:R:3 energy=-72.26957904906966 pbc="F F F"
Tb       0.00000000       0.00000000       0.00000000       0.00000000       0.00000000       1.15208745
Tb       0.00000000       0.00000000       3.23696970       0.00000000       0.00000000      -1.15208745
2
Properties=species:S:1:pos:R:3:forces:R:3 energy=-72.20438912682206 pbc="F F F"
Tb       0.00000000       0.00000000       0.00000000       0.00000000       0.00000000       1.05901194
Tb       0.00000000       0.00000000       3.29575758       0.00000000       0.00000000      -1.05901194
2
Properties=species:S:1:pos:R:3:forces:R:3 energy=-72.14572034433854 pbc="F F F"
Tb       0.00000000       0.00000000       0.00000000       0.00000000       0.00000000       0.93321311
Tb       0.00000000       0.00000000       3.35454545       0.00000000       0.00000000      -0.93321311
2
Properties=species:S:1:pos:R:3:forces:R:3 energy=-72.09488478008043 pbc="F F F"
Tb       0.00000000       0.00000000       0.00000000       0.00000000       0.00000000       0.79674566
Tb       0.00000000       0.00000000       3.41333333       0.00000000       0.00000000      -0.79674566
2
Properties=species:S:1:pos:R:3:forces:R:3 energy=-72.0516915724716 pbc="F F F"
Tb       0.00000000       0.00000000       0.00000000       0.00000000       0.00000000       0.67783582
Tb       0.00000000       0.00000000       3.47212121       0.00000000       0.00000000      -0.67783582
2
Properties=species:S:1:pos:R:3:forces:R:3 energy=-72.01432471020166 pbc="F F F"
Tb       0.00000000       0.00000000       0.00000000       0.00000000       0.00000000       0.60257512
Tb       0.00000000       0.00000000       3.53090909       0.00000000       0.00000000      -0.60257512
2
Properties=species:S:1:pos:R:3:forces:R:3 energy=-71.97964828720292 pbc="F F F"
Tb       0.00000000       0.00000000       0.00000000       0.00000000       0.00000000       0.58792460
Tb       0.00000000       0.00000000       3.58969697       0.00000000       0.00000000      -0.58792460
2
Properties=species:S:1:pos:R:3:forces:R:3 energy=-71.94393139650107 pbc="F F F"
Tb       0.00000000       0.00000000       0.00000000       0.00000000       0.00000000       0.63733059
Tb       0.00000000       0.00000000       3.64848485       0.00000000       0.00000000      -0.63733059
2
Properties=species:S:1:pos:R:3:forces:R:3 energy=-71.90367949663244 pbc="F F F"
Tb       0.00000000       0.00000000       0.00000000       0.00000000       0.00000000       0.73891675
Tb       0.00000000       0.00000000       3.70727273       0.00000000       0.00000000      -0.73891675
2
Properties=species:S:1:pos:R:3:forces:R:3 energy=-71.85652732640469 pbc="F F F"
Tb       0.00000000       0.00000000       0.00000000       0.00000000       0.00000000       0.86709118
Tb       0.00000000       0.00000000       3.76606061       0.00000000       0.00000000      -0.86709118
2
Properties=species:S:1:pos:R:3:forces:R:3 energy=-71.80185664826723 pbc="F F F"
Tb       0.00000000       0.00000000       0.00000000       0.00000000       0.00000000       0.98891765
Tb       0.00000000       0.00000000       3.82484848       0.00000000       0.00000000      -0.98891765
2
Properties=species:S:1:pos:R:3:forces:R:3 energy=-71.74097185743385 pbc="F F F"
Tb       0.00000000       0.00000000       0.00000000       0.00000000       0.00000000       1.07438254
Tb       0.00000000       0.00000000       3.88363636       0.00000000       0.00000000      -1.07438254
2
Properties=species:S:1:pos:R:3:forces:R:3 energy=-71.67660401421753 pbc="F F F"
Tb       0.00000000       0.00000000       0.00000000       0.00000000       0.00000000       1.10604298
Tb       0.00000000       0.00000000       3.94242424       0.00000000       0.00000000      -1.10604298
2
Properties=species:S:1:pos:R:3:forces:R:3 energy=-71.61201062299295 pbc="F F F"
Tb       0.00000000       0.00000000       0.00000000       0.00000000       0.00000000       1.08295846
Tb       0.00000000       0.00000000       4.00121212       0.00000000       0.00000000      -1.08295846
2
Properties=species:S:1:pos:R:3:forces:R:3 energy=-71.55011345676162 pbc="F F F"
Tb       0.00000000       0.00000000       0.00000000       0.00000000       0.00000000       1.01731312
Tb       0.00000000       0.00000000       4.06000000       0.00000000       0.00000000      -1.01731312
2
Properties=species:S:1:pos:R:3:forces:R:3 energy=-71.49288824993877 pbc="F F F"
Tb       0.00000000       0.00000000       0.00000000       0.00000000       0.00000000       0.92694229
Tb       0.00000000       0.00000000       4.11878788       0.00000000       0.00000000      -0.92694229
2
Properties=species:S:1:pos:R:3:forces:R:3 energy=-71.44128075600665 pbc="F F F"
Tb       0.00000000       0.00000000       0.00000000       0.00000000       0.00000000       0.82844096
Tb       0.00000000       0.00000000       4.17757576       0.00000000       0.00000000      -0.82844096
2
Properties=species:S:1:pos:R:3:forces:R:3 energy=-71.39540511177228 pbc="F F F"
Tb       0.00000000       0.00000000       0.00000000       0.00000000       0.00000000       0.73365968
Tb       0.00000000       0.00000000       4.23636364       0.00000000       0.00000000      -0.73365968
2
Properties=species:S:1:pos:R:3:forces:R:3 energy=-71.35481086934394 pbc="F F F"
Tb       0.00000000       0.00000000       0.00000000       0.00000000       0.00000000       0.64954090
Tb       0.00000000       0.00000000       4.29515152       0.00000000       0.00000000      -0.64954090
2
Properties=species:S:1:pos:R:3:forces:R:3 energy=-71.31875766383769 pbc="F F F"
Tb       0.00000000       0.00000000       0.00000000       0.00000000       0.00000000       0.57963443
Tb       0.00000000       0.00000000       4.35393939       0.00000000       0.00000000      -0.57963443
2
Properties=species:S:1:pos:R:3:forces:R:3 energy=-71.28634490041318 pbc="F F F"
Tb       0.00000000       0.00000000       0.00000000       0.00000000       0.00000000       0.52561295
Tb       0.00000000       0.00000000       4.41272727       0.00000000       0.00000000      -0.52561295
2
Properties=species:S:1:pos:R:3:forces:R:3 energy=-71.25663383092173 pbc="F F F"
Tb       0.00000000       0.00000000       0.00000000       0.00000000       0.00000000       0.48801064
Tb       0.00000000       0.00000000       4.47151515       0.00000000       0.00000000      -0.48801064
2
Properties=species:S:1:pos:R:3:forces:R:3 energy=-71.22865518963656 pbc="F F F"
Tb       0.00000000       0.00000000       0.00000000       0.00000000       0.00000000       0.46616715
Tb       0.00000000       0.00000000       4.53030303       0.00000000       0.00000000      -0.46616715
2
Properties=species:S:1:pos:R:3:forces:R:3 energy=-71.20155414224534 pbc="F F F"
Tb       0.00000000       0.00000000       0.00000000       0.00000000       0.00000000       0.45784625
Tb       0.00000000       0.00000000       4.58909091       0.00000000       0.00000000      -0.45784625
2
Properties=species:S:1:pos:R:3:forces:R:3 energy=-71.17463607488881 pbc="F F F"
Tb       0.00000000       0.00000000       0.00000000       0.00000000       0.00000000       0.45909512
Tb       0.00000000       0.00000000       4.64787879       0.00000000       0.00000000      -0.45909512
2
Properties=species:S:1:pos:R:3:forces:R:3 energy=-71.1474962906998 pbc="F F F"
Tb       0.00000000       0.00000000       0.00000000       0.00000000       0.00000000       0.46464768
Tb       0.00000000       0.00000000       4.70666667       0.00000000       0.00000000      -0.46464768
2
Properties=species:S:1:pos:R:3:forces:R:3 energy=-71.12003526542463 pbc="F F F"
Tb       0.00000000       0.00000000       0.00000000       0.00000000       0.00000000       0.46899185
Tb       0.00000000       0.00000000       4.76545455       0.00000000       0.00000000      -0.46899185
2
Properties=species:S:1:pos:R:3:forces:R:3 energy=-71.09245865692651 pbc="F F F"
Tb       0.00000000       0.00000000       0.00000000       0.00000000       0.00000000       0.46773237
Tb       0.00000000       0.00000000       4.82424242       0.00000000       0.00000000      -0.46773237
2
Properties=species:S:1:pos:R:3:forces:R:3 energy=-71.06519339134913 pbc="F F F"
Tb       0.00000000       0.00000000       0.00000000       0.00000000       0.00000000       0.45878270
Tb       0.00000000       0.00000000       4.88303030       0.00000000       0.00000000      -0.45878270
2
Properties=species:S:1:pos:R:3:forces:R:3 energy=-71.03865876544167 pbc="F F F"
Tb       0.00000000       0.00000000       0.00000000       0.00000000       0.00000000       0.44291136
Tb       0.00000000       0.00000000       4.94181818       0.00000000       0.00000000      -0.44291136
2
Properties=species:S:1:pos:R:3:forces:R:3 energy=-71.01319016053304 pbc="F F F"
Tb       0.00000000       0.00000000       0.00000000       0.00000000       0.00000000       0.42339927
Tb       0.00000000       0.00000000       5.00060606       0.00000000       0.00000000      -0.42339927
2
Properties=species:S:1:pos:R:3:forces:R:3 energy=-70.98885595607003 pbc="F F F"
Tb       0.00000000       0.00000000       0.00000000       0.00000000       0.00000000       0.40477827
Tb       0.00000000       0.00000000       5.05939394       0.00000000       0.00000000      -0.40477827
2
Properties=species:S:1:pos:R:3:forces:R:3 energy=-70.96550329172929 pbc="F F F"
Tb       0.00000000       0.00000000       0.00000000       0.00000000       0.00000000       0.39094004
Tb       0.00000000       0.00000000       5.11818182       0.00000000       0.00000000      -0.39094004
2
Properties=species:S:1:pos:R:3:forces:R:3 energy=-70.94277332937428 pbc="F F F"
Tb       0.00000000       0.00000000       0.00000000       0.00000000       0.00000000       0.38312018
Tb       0.00000000       0.00000000       5.17696970       0.00000000       0.00000000      -0.38312018
2
Properties=species:S:1:pos:R:3:forces:R:3 energy=-70.92039118747039 pbc="F F F"
Tb       0.00000000       0.00000000       0.00000000       0.00000000       0.00000000       0.37851536
Tb       0.00000000       0.00000000       5.23575758       0.00000000       0.00000000      -0.37851536
2
Properties=species:S:1:pos:R:3:forces:R:3 energy=-70.89833377826125 pbc="F F F"
Tb       0.00000000       0.00000000       0.00000000       0.00000000       0.00000000       0.37049621
Tb       0.00000000       0.00000000       5.29454545       0.00000000       0.00000000      -0.37049621
2
Properties=species:S:1:pos:R:3:forces:R:3 energy=-70.87702818628166 pbc="F F F"
Tb       0.00000000       0.00000000       0.00000000       0.00000000       0.00000000       0.35259628
Tb       0.00000000       0.00000000       5.35333333       0.00000000       0.00000000      -0.35259628
2
Properties=species:S:1:pos:R:3:forces:R:3 energy=-70.85703122269999 pbc="F F F"
Tb       0.00000000       0.00000000       0.00000000       0.00000000       0.00000000       0.32738683
Tb       0.00000000       0.00000000       5.41212121       0.00000000       0.00000000      -0.32738683
2
Properties=species:S:1:pos:R:3:forces:R:3 energy=-70.8384190911786 pbc="F F F"
Tb       0.00000000       0.00000000       0.00000000       0.00000000       0.00000000       0.30726025
Tb       0.00000000       0.00000000       5.47090909       0.00000000       0.00000000      -0.30726025
2
Properties=species:S:1:pos:R:3:forces:R:3 energy=-70.82084079363563 pbc="F F F"
Tb       0.00000000       0.00000000       0.00000000       0.00000000       0.00000000       0.28958896
Tb       0.00000000       0.00000000       5.52969697       0.00000000       0.00000000      -0.28958896
2
Properties=species:S:1:pos:R:3:forces:R:3 energy=-70.80473883020217 pbc="F F F"
Tb       0.00000000       0.00000000       0.00000000       0.00000000       0.00000000       0.25454125
Tb       0.00000000       0.00000000       5.58848485       0.00000000       0.00000000      -0.25454125
2
Properties=species:S:1:pos:R:3:forces:R:3 energy=-70.79118136679774 pbc="F F F"
Tb       0.00000000       0.00000000       0.00000000       0.00000000       0.00000000       0.20713212
Tb       0.00000000       0.00000000       5.64727273       0.00000000       0.00000000      -0.20713212
2
Properties=species:S:1:pos:R:3:forces:R:3 energy=-70.78003116935545 pbc="F F F"
Tb       0.00000000       0.00000000       0.00000000       0.00000000       0.00000000       0.17696831
Tb       0.00000000       0.00000000       5.70606061       0.00000000       0.00000000      -0.17696831
2
Properties=species:S:1:pos:R:3:forces:R:3 energy=-70.76980828739171 pbc="F F F"
Tb       0.00000000       0.00000000       0.00000000       0.00000000       0.00000000       0.17218983
Tb       0.00000000       0.00000000       5.76484848       0.00000000       0.00000000      -0.17218983
2
Properties=species:S:1:pos:R:3:forces:R:3 energy=-70.76010095059762 pbc="F F F"
Tb       0.00000000       0.00000000       0.00000000       0.00000000       0.00000000       0.15167546
Tb       0.00000000       0.00000000       5.82363636       0.00000000       0.00000000      -0.15167546
2
Properties=species:S:1:pos:R:3:forces:R:3 energy=-70.7528091379729 pbc="F F F"
Tb       0.00000000       0.00000000       0.00000000       0.00000000       0.00000000       0.09285205
Tb       0.00000000       0.00000000       5.88242424       0.00000000       0.00000000      -0.09285205
2
Properties=species:S:1:pos:R:3:forces:R:3 energy=-70.74924543799825 pbc="F F F"
Tb       0.00000000       0.00000000       0.00000000       0.00000000       0.00000000       0.03111466
Tb       0.00000000       0.00000000       5.94121212       0.00000000       0.00000000      -0.03111466
2
Properties=species:S:1:pos:R:3:forces:R:3 energy=-70.74839552450749 pbc="F F F"
Tb       0.00000000       0.00000000       0.00000000       0.00000000       0.00000000       0.00623335
Tb       0.00000000       0.00000000       6.00000000       0.00000000       0.00000000      -0.00623335
