2
Properties=species:S:1:pos:R:3:forces:R:3 energy=17368.70573878083 pbc="F F F"
Tl       0.00000000       0.00000000       0.00000000       0.00000000       0.00000000 -296815.28125000
Tl       0.00000000       0.00000000       0.18000000       0.00000000       0.00000000  296815.28125000
2
Properties=species:S:1:pos:R:3:forces:R:3 energy=7018.42155909333 pbc="F F F"
Tl       0.00000000       0.00000000       0.00000000       0.00000000       0.00000000  -97909.47656250
Tl       0.00000000       0.00000000       0.23878788       0.00000000       0.00000000   97909.47656250
2
Properties=species:S:1:pos:R:3:forces:R:3 energy=3300.56316065583 pbc="F F F"
Tl       0.00000000       0.00000000       0.00000000       0.00000000       0.00000000  -39268.94531250
Tl       0.00000000       0.00000000       0.29757576       0.00000000       0.00000000   39268.94531250
2
Properties=species:S:1:pos:R:3:forces:R:3 energy=1681.8239028433302 pbc="F F F"
Tl       0.00000000       0.00000000       0.00000000       0.00000000       0.00000000  -19183.00000000
Tl       0.00000000       0.00000000       0.35636364       0.00000000       0.00000000   19183.00000000
2
Properties=species:S:1:pos:R:3:forces:R:3 energy=806.447193859747 pbc="F F F"
Tl       0.00000000       0.00000000       0.00000000       0.00000000       0.00000000  -11730.69238281
Tl       0.00000000       0.00000000       0.41515152       0.00000000       0.00000000   11730.69238281
2
Properties=species:S:1:pos:R:3:forces:R:3 energy=229.88094019763767 pbc="F F F"
Tl       0.00000000       0.00000000       0.00000000       0.00000000       0.00000000   -8139.10498047
Tl       0.00000000       0.00000000       0.47393939       0.00000000       0.00000000    8139.10498047
2
Properties=species:S:1:pos:R:3:forces:R:3 energy=-157.10352635430473 pbc="F F F"
Tl       0.00000000       0.00000000       0.00000000       0.00000000       0.00000000   -4978.62353516
Tl       0.00000000       0.00000000       0.53272727       0.00000000       0.00000000    4978.62353516
2
Properties=species:S:1:pos:R:3:forces:R:3 energy=-255.62597203143176 pbc="F F F"
Tl       0.00000000       0.00000000       0.00000000       0.00000000       0.00000000    1975.82214355
Tl       0.00000000       0.00000000       0.59151515       0.00000000       0.00000000   -1975.82214355
2
Properties=species:S:1:pos:R:3:forces:R:3 energy=-173.69446873315746 pbc="F F F"
Tl       0.00000000       0.00000000       0.00000000       0.00000000       0.00000000     897.29766846
Tl       0.00000000       0.00000000       0.65030303       0.00000000       0.00000000    -897.29766846
2
Properties=species:S:1:pos:R:3:forces:R:3 energy=-120.55401157587737 pbc="F F F"
Tl       0.00000000       0.00000000       0.00000000       0.00000000       0.00000000    1026.33056641
Tl       0.00000000       0.00000000       0.70909091       0.00000000       0.00000000   -1026.33056641
2
Properties=species:S:1:pos:R:3:forces:R:3 energy=-63.398703801350244 pbc="F F F"
Tl       0.00000000       0.00000000       0.00000000       0.00000000       0.00000000    -213.05876160
Tl       0.00000000       0.00000000       0.76787879       0.00000000       0.00000000     213.05876160
2
Properties=species:S:1:pos:R:3:forces:R:3 energy=-74.92776034091905 pbc="F F F"
Tl       0.00000000       0.00000000       0.00000000       0.00000000       0.00000000    -131.73452759
Tl       0.00000000       0.00000000       0.82666667       0.00000000       0.00000000     131.73452759
2
Properties=species:S:1:pos:R:3:forces:R:3 energy=-80.54270478783948 pbc="F F F"
Tl       0.00000000       0.00000000       0.00000000       0.00000000       0.00000000     -70.77410126
Tl       0.00000000       0.00000000       0.88545455       0.00000000       0.00000000      70.77410126
2
Properties=species:S:1:pos:R:3:forces:R:3 energy=-83.45231933340474 pbc="F F F"
Tl       0.00000000       0.00000000       0.00000000       0.00000000       0.00000000     -17.84778214
Tl       0.00000000       0.00000000       0.94424242       0.00000000       0.00000000      17.84778214
2
Properties=species:S:1:pos:R:3:forces:R:3 energy=-82.77920071992139 pbc="F F F"
Tl       0.00000000       0.00000000       0.00000000       0.00000000       0.00000000      23.77571678
Tl       0.00000000       0.00000000       1.00303030       0.00000000       0.00000000     -23.77571678
2
Properties=species:S:1:pos:R:3:forces:R:3 energy=-81.81340326551067 pbc="F F F"
Tl       0.00000000       0.00000000       0.00000000       0.00000000       0.00000000       7.97412968
Tl       0.00000000       0.00000000       1.06181818       0.00000000       0.00000000      -7.97412968
2
Properties=species:S:1:pos:R:3:forces:R:3 energy=-81.96612081624492 pbc="F F F"
Tl       0.00000000       0.00000000       0.00000000       0.00000000       0.00000000     -13.78762627
Tl       0.00000000       0.00000000       1.12060606       0.00000000       0.00000000      13.78762627
2
Properties=species:S:1:pos:R:3:forces:R:3 energy=-83.10168747381773 pbc="F F F"
Tl       0.00000000       0.00000000       0.00000000       0.00000000       0.00000000     -21.38806534
Tl       0.00000000       0.00000000       1.17939394       0.00000000       0.00000000      21.38806534
2
Properties=species:S:1:pos:R:3:forces:R:3 energy=-83.9321393726255 pbc="F F F"
Tl       0.00000000       0.00000000       0.00000000       0.00000000       0.00000000      -2.86660695
Tl       0.00000000       0.00000000       1.23818182       0.00000000       0.00000000       2.86660695
2
Properties=species:S:1:pos:R:3:forces:R:3 energy=-83.66808594078383 pbc="F F F"
Tl       0.00000000       0.00000000       0.00000000       0.00000000       0.00000000       5.50772953
Tl       0.00000000       0.00000000       1.29696970       0.00000000       0.00000000      -5.50772953
2
Properties=species:S:1:pos:R:3:forces:R:3 energy=-83.84403492975756 pbc="F F F"
Tl       0.00000000       0.00000000       0.00000000       0.00000000       0.00000000     -13.43588543
Tl       0.00000000       0.00000000       1.35575758       0.00000000       0.00000000      13.43588543
2
Properties=species:S:1:pos:R:3:forces:R:3 energy=-85.19923651631653 pbc="F F F"
Tl       0.00000000       0.00000000       0.00000000       0.00000000       0.00000000     -30.42088890
Tl       0.00000000       0.00000000       1.41454545       0.00000000       0.00000000      30.42088890
2
Properties=species:S:1:pos:R:3:forces:R:3 energy=-87.11819691971101 pbc="F F F"
Tl       0.00000000       0.00000000       0.00000000       0.00000000       0.00000000     -32.89158249
Tl       0.00000000       0.00000000       1.47333333       0.00000000       0.00000000      32.89158249
2
Properties=species:S:1:pos:R:3:forces:R:3 energy=-88.93861602611797 pbc="F F F"
Tl       0.00000000       0.00000000       0.00000000       0.00000000       0.00000000     -28.63101196
Tl       0.00000000       0.00000000       1.53212121       0.00000000       0.00000000      28.63101196
2
Properties=species:S:1:pos:R:3:forces:R:3 energy=-90.48589513456213 pbc="F F F"
Tl       0.00000000       0.00000000       0.00000000       0.00000000       0.00000000     -24.31106567
Tl       0.00000000       0.00000000       1.59090909       0.00000000       0.00000000      24.31106567
2
Properties=species:S:1:pos:R:3:forces:R:3 energy=-91.84336248419426 pbc="F F F"
Tl       0.00000000       0.00000000       0.00000000       0.00000000       0.00000000     -22.24167061
Tl       0.00000000       0.00000000       1.64969697       0.00000000       0.00000000      22.24167061
2
Properties=species:S:1:pos:R:3:forces:R:3 energy=-93.1303036521748 pbc="F F F"
Tl       0.00000000       0.00000000       0.00000000       0.00000000       0.00000000     -21.65535736
Tl       0.00000000       0.00000000       1.70848485       0.00000000       0.00000000      21.65535736
2
Properties=species:S:1:pos:R:3:forces:R:3 energy=-94.39061053019489 pbc="F F F"
Tl       0.00000000       0.00000000       0.00000000       0.00000000       0.00000000     -21.15958023
Tl       0.00000000       0.00000000       1.76727273       0.00000000       0.00000000      21.15958023
2
Properties=species:S:1:pos:R:3:forces:R:3 energy=-95.60818509024989 pbc="F F F"
Tl       0.00000000       0.00000000       0.00000000       0.00000000       0.00000000     -20.17591095
Tl       0.00000000       0.00000000       1.82606061       0.00000000       0.00000000      20.17591095
2
Properties=species:S:1:pos:R:3:forces:R:3 energy=-96.75406613644398 pbc="F F F"
Tl       0.00000000       0.00000000       0.00000000       0.00000000       0.00000000     -18.74850655
Tl       0.00000000       0.00000000       1.88484848       0.00000000       0.00000000      18.74850655
2
Properties=species:S:1:pos:R:3:forces:R:3 energy=-97.80717364376775 pbc="F F F"
Tl       0.00000000       0.00000000       0.00000000       0.00000000       0.00000000     -17.04463005
Tl       0.00000000       0.00000000       1.94363636       0.00000000       0.00000000      17.04463005
2
Properties=species:S:1:pos:R:3:forces:R:3 energy=-98.75528530238327 pbc="F F F"
Tl       0.00000000       0.00000000       0.00000000       0.00000000       0.00000000     -15.19692421
Tl       0.00000000       0.00000000       2.00242424       0.00000000       0.00000000      15.19692421
2
Properties=species:S:1:pos:R:3:forces:R:3 energy=-99.59350303070606 pbc="F F F"
Tl       0.00000000       0.00000000       0.00000000       0.00000000       0.00000000     -13.32604122
Tl       0.00000000       0.00000000       2.06121212       0.00000000       0.00000000      13.32604122
2
Properties=species:S:1:pos:R:3:forces:R:3 energy=-100.32391727175028 pbc="F F F"
Tl       0.00000000       0.00000000       0.00000000       0.00000000       0.00000000     -11.54631519
Tl       0.00000000       0.00000000       2.12000000       0.00000000       0.00000000      11.54631519
2
Properties=species:S:1:pos:R:3:forces:R:3 energy=-100.95445495851435 pbc="F F F"
Tl       0.00000000       0.00000000       0.00000000       0.00000000       0.00000000      -9.93726254
Tl       0.00000000       0.00000000       2.17878788       0.00000000       0.00000000       9.93726254
2
Properties=species:S:1:pos:R:3:forces:R:3 energy=-101.4961558177574 pbc="F F F"
Tl       0.00000000       0.00000000       0.00000000       0.00000000       0.00000000      -8.52361012
Tl       0.00000000       0.00000000       2.23757576       0.00000000       0.00000000       8.52361012
2
Properties=species:S:1:pos:R:3:forces:R:3 energy=-101.9600366959745 pbc="F F F"
Tl       0.00000000       0.00000000       0.00000000       0.00000000       0.00000000      -7.28326368
Tl       0.00000000       0.00000000       2.29636364       0.00000000       0.00000000       7.28326368
2
Properties=species:S:1:pos:R:3:forces:R:3 energy=-102.35501639972219 pbc="F F F"
Tl       0.00000000       0.00000000       0.00000000       0.00000000       0.00000000      -6.17191219
Tl       0.00000000       0.00000000       2.35515152       0.00000000       0.00000000       6.17191219
2
Properties=species:S:1:pos:R:3:forces:R:3 energy=-102.68738921116697 pbc="F F F"
Tl       0.00000000       0.00000000       0.00000000       0.00000000       0.00000000      -5.14722824
Tl       0.00000000       0.00000000       2.41393939       0.00000000       0.00000000       5.14722824
2
Properties=species:S:1:pos:R:3:forces:R:3 energy=-102.96141241402873 pbc="F F F"
Tl       0.00000000       0.00000000       0.00000000       0.00000000       0.00000000      -4.18494368
Tl       0.00000000       0.00000000       2.47272727       0.00000000       0.00000000       4.18494368
2
Properties=species:S:1:pos:R:3:forces:R:3 energy=-103.18063383911534 pbc="F F F"
Tl       0.00000000       0.00000000       0.00000000       0.00000000       0.00000000      -3.28440475
Tl       0.00000000       0.00000000       2.53151515       0.00000000       0.00000000       3.28440475
2
Properties=species:S:1:pos:R:3:forces:R:3 energy=-103.3491506463123 pbc="F F F"
Tl       0.00000000       0.00000000       0.00000000       0.00000000       0.00000000      -2.46414113
Tl       0.00000000       0.00000000       2.59030303       0.00000000       0.00000000       2.46414113
2
Properties=species:S:1:pos:R:3:forces:R:3 energy=-103.47244103470851 pbc="F F F"
Tl       0.00000000       0.00000000       0.00000000       0.00000000       0.00000000      -1.74990821
Tl       0.00000000       0.00000000       2.64909091       0.00000000       0.00000000       1.74990821
2
Properties=species:S:1:pos:R:3:forces:R:3 energy=-103.55735655697305 pbc="F F F"
Tl       0.00000000       0.00000000       0.00000000       0.00000000       0.00000000      -1.16069400
Tl       0.00000000       0.00000000       2.70787879       0.00000000       0.00000000       1.16069400
2
Properties=species:S:1:pos:R:3:forces:R:3 energy=-103.61142022535361 pbc="F F F"
Tl       0.00000000       0.00000000       0.00000000       0.00000000       0.00000000      -0.69926000
Tl       0.00000000       0.00000000       2.76666667       0.00000000       0.00000000       0.69926000
2
Properties=species:S:1:pos:R:3:forces:R:3 energy=-103.64181170716928 pbc="F F F"
Tl       0.00000000       0.00000000       0.00000000       0.00000000       0.00000000      -0.35192052
Tl       0.00000000       0.00000000       2.82545455       0.00000000       0.00000000       0.35192052
2
Properties=species:S:1:pos:R:3:forces:R:3 energy=-103.65458903470139 pbc="F F F"
Tl       0.00000000       0.00000000       0.00000000       0.00000000       0.00000000      -0.09604217
Tl       0.00000000       0.00000000       2.88424242       0.00000000       0.00000000       0.09604217
2
Properties=species:S:1:pos:R:3:forces:R:3 energy=-103.65445191894098 pbc="F F F"
Tl       0.00000000       0.00000000       0.00000000       0.00000000       0.00000000       0.09098332
Tl       0.00000000       0.00000000       2.94303030       0.00000000       0.00000000      -0.09098332
2
Properties=species:S:1:pos:R:3:forces:R:3 energy=-103.64489418938368 pbc="F F F"
Tl       0.00000000       0.00000000       0.00000000       0.00000000       0.00000000       0.22671542
Tl       0.00000000       0.00000000       3.00181818       0.00000000       0.00000000      -0.22671542
2
Properties=species:S:1:pos:R:3:forces:R:3 energy=-103.62855467173435 pbc="F F F"
Tl       0.00000000       0.00000000       0.00000000       0.00000000       0.00000000       0.32366782
Tl       0.00000000       0.00000000       3.06060606       0.00000000       0.00000000      -0.32366782
2
Properties=species:S:1:pos:R:3:forces:R:3 energy=-103.60740811917532 pbc="F F F"
Tl       0.00000000       0.00000000       0.00000000       0.00000000       0.00000000       0.39183778
Tl       0.00000000       0.00000000       3.11939394       0.00000000       0.00000000      -0.39183778
2
Properties=species:S:1:pos:R:3:forces:R:3 energy=-103.58285728066383 pbc="F F F"
Tl       0.00000000       0.00000000       0.00000000       0.00000000       0.00000000       0.44079155
Tl       0.00000000       0.00000000       3.17818182       0.00000000       0.00000000      -0.44079155
2
Properties=species:S:1:pos:R:3:forces:R:3 energy=-103.55577158089078 pbc="F F F"
Tl       0.00000000       0.00000000       0.00000000       0.00000000       0.00000000       0.47980803
Tl       0.00000000       0.00000000       3.23696970       0.00000000       0.00000000      -0.47980803
2
Properties=species:S:1:pos:R:3:forces:R:3 energy=-103.52648750358713 pbc="F F F"
Tl       0.00000000       0.00000000       0.00000000       0.00000000       0.00000000       0.51649129
Tl       0.00000000       0.00000000       3.29575758       0.00000000       0.00000000      -0.51649129
2
Properties=species:S:1:pos:R:3:forces:R:3 energy=-103.49500659465014 pbc="F F F"
Tl       0.00000000       0.00000000       0.00000000       0.00000000       0.00000000       0.55519831
Tl       0.00000000       0.00000000       3.35454545       0.00000000       0.00000000      -0.55519831
2
Properties=species:S:1:pos:R:3:forces:R:3 energy=-103.46116222225987 pbc="F F F"
Tl       0.00000000       0.00000000       0.00000000       0.00000000       0.00000000       0.59649771
Tl       0.00000000       0.00000000       3.41333333       0.00000000       0.00000000      -0.59649771
2
Properties=species:S:1:pos:R:3:forces:R:3 energy=-103.42486221437275 pbc="F F F"
Tl       0.00000000       0.00000000       0.00000000       0.00000000       0.00000000       0.63801581
Tl       0.00000000       0.00000000       3.47212121       0.00000000       0.00000000      -0.63801581
2
Properties=species:S:1:pos:R:3:forces:R:3 energy=-103.38621077697849 pbc="F F F"
Tl       0.00000000       0.00000000       0.00000000       0.00000000       0.00000000       0.67618507
Tl       0.00000000       0.00000000       3.53090909       0.00000000       0.00000000      -0.67618507
2
Properties=species:S:1:pos:R:3:forces:R:3 energy=-103.34548713439071 pbc="F F F"
Tl       0.00000000       0.00000000       0.00000000       0.00000000       0.00000000       0.70801228
Tl       0.00000000       0.00000000       3.58969697       0.00000000       0.00000000      -0.70801228
2
Properties=species:S:1:pos:R:3:forces:R:3 energy=-103.30311680386426 pbc="F F F"
Tl       0.00000000       0.00000000       0.00000000       0.00000000       0.00000000       0.73213506
Tl       0.00000000       0.00000000       3.64848485       0.00000000       0.00000000      -0.73213506
2
Properties=species:S:1:pos:R:3:forces:R:3 energy=-103.25954984444066 pbc="F F F"
Tl       0.00000000       0.00000000       0.00000000       0.00000000       0.00000000       0.74895543
Tl       0.00000000       0.00000000       3.70727273       0.00000000       0.00000000      -0.74895543
2
Properties=species:S:1:pos:R:3:forces:R:3 energy=-103.21516849641925 pbc="F F F"
Tl       0.00000000       0.00000000       0.00000000       0.00000000       0.00000000       0.76005721
Tl       0.00000000       0.00000000       3.76606061       0.00000000       0.00000000      -0.76005721
2
Properties=species:S:1:pos:R:3:forces:R:3 energy=-103.17025592726027 pbc="F F F"
Tl       0.00000000       0.00000000       0.00000000       0.00000000       0.00000000       0.76738077
Tl       0.00000000       0.00000000       3.82484848       0.00000000       0.00000000      -0.76738077
2
Properties=species:S:1:pos:R:3:forces:R:3 energy=-103.12498830837491 pbc="F F F"
Tl       0.00000000       0.00000000       0.00000000       0.00000000       0.00000000       0.77249742
Tl       0.00000000       0.00000000       3.88363636       0.00000000       0.00000000      -0.77249742
2
Properties=species:S:1:pos:R:3:forces:R:3 energy=-103.0794576367846 pbc="F F F"
Tl       0.00000000       0.00000000       0.00000000       0.00000000       0.00000000       0.77622074
Tl       0.00000000       0.00000000       3.94242424       0.00000000       0.00000000      -0.77622074
2
Properties=species:S:1:pos:R:3:forces:R:3 energy=-103.03374808846299 pbc="F F F"
Tl       0.00000000       0.00000000       0.00000000       0.00000000       0.00000000       0.77854729
Tl       0.00000000       0.00000000       4.00121212       0.00000000       0.00000000      -0.77854729
2
Properties=species:S:1:pos:R:3:forces:R:3 energy=-102.98795895324493 pbc="F F F"
Tl       0.00000000       0.00000000       0.00000000       0.00000000       0.00000000       0.77889180
Tl       0.00000000       0.00000000       4.06000000       0.00000000       0.00000000      -0.77889180
2
Properties=species:S:1:pos:R:3:forces:R:3 energy=-102.94222759824588 pbc="F F F"
Tl       0.00000000       0.00000000       0.00000000       0.00000000       0.00000000       0.77643329
Tl       0.00000000       0.00000000       4.11878788       0.00000000       0.00000000      -0.77643329
2
Properties=species:S:1:pos:R:3:forces:R:3 energy=-102.89673705686661 pbc="F F F"
Tl       0.00000000       0.00000000       0.00000000       0.00000000       0.00000000       0.77044421
Tl       0.00000000       0.00000000       4.17757576       0.00000000       0.00000000      -0.77044421
2
Properties=species:S:1:pos:R:3:forces:R:3 energy=-102.85171616421769 pbc="F F F"
Tl       0.00000000       0.00000000       0.00000000       0.00000000       0.00000000       0.76050401
Tl       0.00000000       0.00000000       4.23636364       0.00000000       0.00000000      -0.76050401
2
Properties=species:S:1:pos:R:3:forces:R:3 energy=-102.80740129848107 pbc="F F F"
Tl       0.00000000       0.00000000       0.00000000       0.00000000       0.00000000       0.74655002
Tl       0.00000000       0.00000000       4.29515152       0.00000000       0.00000000      -0.74655002
2
Properties=species:S:1:pos:R:3:forces:R:3 energy=-102.76401359488871 pbc="F F F"
Tl       0.00000000       0.00000000       0.00000000       0.00000000       0.00000000       0.72879696
Tl       0.00000000       0.00000000       4.35393939       0.00000000       0.00000000      -0.72879696
2
Properties=species:S:1:pos:R:3:forces:R:3 energy=-102.72178181093956 pbc="F F F"
Tl       0.00000000       0.00000000       0.00000000       0.00000000       0.00000000       0.70758373
Tl       0.00000000       0.00000000       4.41272727       0.00000000       0.00000000      -0.70758373
2
Properties=species:S:1:pos:R:3:forces:R:3 energy=-102.68088127936386 pbc="F F F"
Tl       0.00000000       0.00000000       0.00000000       0.00000000       0.00000000       0.68320614
Tl       0.00000000       0.00000000       4.47151515       0.00000000       0.00000000      -0.68320614
2
Properties=species:S:1:pos:R:3:forces:R:3 energy=-102.64151022741112 pbc="F F F"
Tl       0.00000000       0.00000000       0.00000000       0.00000000       0.00000000       0.65579009
Tl       0.00000000       0.00000000       4.53030303       0.00000000       0.00000000      -0.65579009
2
Properties=species:S:1:pos:R:3:forces:R:3 energy=-102.6038439791001 pbc="F F F"
Tl       0.00000000       0.00000000       0.00000000       0.00000000       0.00000000       0.62522376
Tl       0.00000000       0.00000000       4.58909091       0.00000000       0.00000000      -0.62522376
2
Properties=species:S:1:pos:R:3:forces:R:3 energy=-102.56806550843494 pbc="F F F"
Tl       0.00000000       0.00000000       0.00000000       0.00000000       0.00000000       0.59120756
Tl       0.00000000       0.00000000       4.64787879       0.00000000       0.00000000      -0.59120756
2
Properties=species:S:1:pos:R:3:forces:R:3 energy=-102.53440356578695 pbc="F F F"
Tl       0.00000000       0.00000000       0.00000000       0.00000000       0.00000000       0.55337685
Tl       0.00000000       0.00000000       4.70666667       0.00000000       0.00000000      -0.55337685
2
Properties=species:S:1:pos:R:3:forces:R:3 energy=-102.50307927371682 pbc="F F F"
Tl       0.00000000       0.00000000       0.00000000       0.00000000       0.00000000       0.51159239
Tl       0.00000000       0.00000000       4.76545455       0.00000000       0.00000000      -0.51159239
2
Properties=species:S:1:pos:R:3:forces:R:3 energy=-102.47432140160282 pbc="F F F"
Tl       0.00000000       0.00000000       0.00000000       0.00000000       0.00000000       0.46631265
Tl       0.00000000       0.00000000       4.82424242       0.00000000       0.00000000      -0.46631265
2
Properties=species:S:1:pos:R:3:forces:R:3 energy=-102.44829769237845 pbc="F F F"
Tl       0.00000000       0.00000000       0.00000000       0.00000000       0.00000000       0.41897827
Tl       0.00000000       0.00000000       4.88303030       0.00000000       0.00000000      -0.41897827
2
Properties=species:S:1:pos:R:3:forces:R:3 energy=-102.42505382341645 pbc="F F F"
Tl       0.00000000       0.00000000       0.00000000       0.00000000       0.00000000       0.37219125
Tl       0.00000000       0.00000000       4.94181818       0.00000000       0.00000000      -0.37219125
2
Properties=species:S:1:pos:R:3:forces:R:3 energy=-102.40445240225881 pbc="F F F"
Tl       0.00000000       0.00000000       0.00000000       0.00000000       0.00000000       0.32957318
Tl       0.00000000       0.00000000       5.00060606       0.00000000       0.00000000      -0.32957318
2
Properties=species:S:1:pos:R:3:forces:R:3 energy=-102.38614242211219 pbc="F F F"
Tl       0.00000000       0.00000000       0.00000000       0.00000000       0.00000000       0.29496115
Tl       0.00000000       0.00000000       5.05939394       0.00000000       0.00000000      -0.29496115
2
Properties=species:S:1:pos:R:3:forces:R:3 energy=-102.36955925551219 pbc="F F F"
Tl       0.00000000       0.00000000       0.00000000       0.00000000       0.00000000       0.27110457
Tl       0.00000000       0.00000000       5.11818182       0.00000000       0.00000000      -0.27110457
2
Properties=species:S:1:pos:R:3:forces:R:3 energy=-102.35405439600409 pbc="F F F"
Tl       0.00000000       0.00000000       0.00000000       0.00000000       0.00000000       0.25798422
Tl       0.00000000       0.00000000       5.17696970       0.00000000       0.00000000      -0.25798422
2
Properties=species:S:1:pos:R:3:forces:R:3 energy=-102.33910141774112 pbc="F F F"
Tl       0.00000000       0.00000000       0.00000000       0.00000000       0.00000000       0.25133273
Tl       0.00000000       0.00000000       5.23575758       0.00000000       0.00000000      -0.25133273
2
Properties=species:S:1:pos:R:3:forces:R:3 energy=-102.32454777480629 pbc="F F F"
Tl       0.00000000       0.00000000       0.00000000       0.00000000       0.00000000       0.24252373
Tl       0.00000000       0.00000000       5.29454545       0.00000000       0.00000000      -0.24252373
2
Properties=species:S:1:pos:R:3:forces:R:3 energy=-102.31079023848083 pbc="F F F"
Tl       0.00000000       0.00000000       0.00000000       0.00000000       0.00000000       0.22340247
Tl       0.00000000       0.00000000       5.35333333       0.00000000       0.00000000      -0.22340247
2
Properties=species:S:1:pos:R:3:forces:R:3 energy=-102.29837822574933 pbc="F F F"
Tl       0.00000000       0.00000000       0.00000000       0.00000000       0.00000000       0.20005558
Tl       0.00000000       0.00000000       5.41212121       0.00000000       0.00000000      -0.20005558
2
Properties=species:S:1:pos:R:3:forces:R:3 energy=-102.28684645837895 pbc="F F F"
Tl       0.00000000       0.00000000       0.00000000       0.00000000       0.00000000       0.19754305
Tl       0.00000000       0.00000000       5.47090909       0.00000000       0.00000000      -0.19754305
2
Properties=species:S:1:pos:R:3:forces:R:3 energy=-102.27472259073 pbc="F F F"
Tl       0.00000000       0.00000000       0.00000000       0.00000000       0.00000000       0.21462034
Tl       0.00000000       0.00000000       5.52969697       0.00000000       0.00000000      -0.21462034
2
Properties=species:S:1:pos:R:3:forces:R:3 energy=-102.26209073383576 pbc="F F F"
Tl       0.00000000       0.00000000       0.00000000       0.00000000       0.00000000       0.20938469
Tl       0.00000000       0.00000000       5.58848485       0.00000000       0.00000000      -0.20938469
2
Properties=species:S:1:pos:R:3:forces:R:3 energy=-102.2505914086772 pbc="F F F"
Tl       0.00000000       0.00000000       0.00000000       0.00000000       0.00000000       0.18162121
Tl       0.00000000       0.00000000       5.64727273       0.00000000       0.00000000      -0.18162121
2
Properties=species:S:1:pos:R:3:forces:R:3 energy=-102.24030876034168 pbc="F F F"
Tl       0.00000000       0.00000000       0.00000000       0.00000000       0.00000000       0.17500092
Tl       0.00000000       0.00000000       5.70606061       0.00000000       0.00000000      -0.17500092
2
Properties=species:S:1:pos:R:3:forces:R:3 energy=-102.22925178295361 pbc="F F F"
Tl       0.00000000       0.00000000       0.00000000       0.00000000       0.00000000       0.20232929
Tl       0.00000000       0.00000000       5.76484848       0.00000000       0.00000000      -0.20232929
2
Properties=species:S:1:pos:R:3:forces:R:3 energy=-102.21716898842963 pbc="F F F"
Tl       0.00000000       0.00000000       0.00000000       0.00000000       0.00000000       0.19713902
Tl       0.00000000       0.00000000       5.82363636       0.00000000       0.00000000      -0.19713902
2
Properties=species:S:1:pos:R:3:forces:R:3 energy=-102.20753968637085 pbc="F F F"
Tl       0.00000000       0.00000000       0.00000000       0.00000000       0.00000000       0.12325478
Tl       0.00000000       0.00000000       5.88242424       0.00000000       0.00000000      -0.12325478
2
Properties=species:S:1:pos:R:3:forces:R:3 energy=-102.20290480807289 pbc="F F F"
Tl       0.00000000       0.00000000       0.00000000       0.00000000       0.00000000       0.03796715
Tl       0.00000000       0.00000000       5.94121212       0.00000000       0.00000000      -0.03796715
2
Properties=species:S:1:pos:R:3:forces:R:3 energy=-102.2020439901597 pbc="F F F"
Tl       0.00000000       0.00000000       0.00000000       0.00000000       0.00000000       0.00298182
Tl       0.00000000       0.00000000       6.00000000       0.00000000       0.00000000      -0.00298182
