2
Properties=species:S:1:pos:R:3:forces:R:3 energy=6039832.470942508 pbc="F F F"
U        0.00000000       0.00000000       0.00000000       0.00000000       0.00000000 -742109.12500000
U        0.00000000       0.00000000       0.18000000       0.00000000       0.00000000  742109.12500000
2
Properties=species:S:1:pos:R:3:forces:R:3 energy=5987579.970942508 pbc="F F F"
U        0.00000000       0.00000000       0.00000000       0.00000000       0.00000000 -1166766.25000000
U        0.00000000       0.00000000       0.23878788       0.00000000       0.00000000 1166766.25000000
2
Properties=species:S:1:pos:R:3:forces:R:3 energy=5888697.470942508 pbc="F F F"
U        0.00000000       0.00000000       0.00000000       0.00000000       0.00000000 -2318549.75000000
U        0.00000000       0.00000000       0.29757576       0.00000000       0.00000000 2318549.75000000
2
Properties=species:S:1:pos:R:3:forces:R:3 energy=5700318.970942508 pbc="F F F"
U        0.00000000       0.00000000       0.00000000       0.00000000       0.00000000 -4215825.50000000
U        0.00000000       0.00000000       0.35636364       0.00000000       0.00000000 4215825.50000000
2
Properties=species:S:1:pos:R:3:forces:R:3 energy=5378515.970942508 pbc="F F F"
U        0.00000000       0.00000000       0.00000000       0.00000000       0.00000000 -6845721.00000000
U        0.00000000       0.00000000       0.41515152       0.00000000       0.00000000 6845721.00000000
2
Properties=species:S:1:pos:R:3:forces:R:3 energy=4885476.970942511 pbc="F F F"
U        0.00000000       0.00000000       0.00000000       0.00000000       0.00000000 -9975596.00000000
U        0.00000000       0.00000000       0.47393939       0.00000000       0.00000000 9975596.00000000
2
Properties=species:S:1:pos:R:3:forces:R:3 energy=4206583.970942511 pbc="F F F"
U        0.00000000       0.00000000       0.00000000       0.00000000       0.00000000 -13045541.00000000
U        0.00000000       0.00000000       0.53272727       0.00000000       0.00000000 13045541.00000000
2
Properties=species:S:1:pos:R:3:forces:R:3 energy=3369488.9709425145 pbc="F F F"
U        0.00000000       0.00000000       0.00000000       0.00000000       0.00000000 -15200568.00000000
U        0.00000000       0.00000000       0.59151515       0.00000000       0.00000000 15200568.00000000
2
Properties=species:S:1:pos:R:3:forces:R:3 energy=2454711.4709425177 pbc="F F F"
U        0.00000000       0.00000000       0.00000000       0.00000000       0.00000000 -15567107.00000000
U        0.00000000       0.00000000       0.65030303       0.00000000       0.00000000 15567107.00000000
2
Properties=species:S:1:pos:R:3:forces:R:3 energy=1582737.845942524 pbc="F F F"
U        0.00000000       0.00000000       0.00000000       0.00000000       0.00000000 -13743660.00000000
U        0.00000000       0.00000000       0.70909091       0.00000000       0.00000000 13743660.00000000
2
Properties=species:S:1:pos:R:3:forces:R:3 energy=871341.3459425368 pbc="F F F"
U        0.00000000       0.00000000       0.00000000       0.00000000       0.00000000 -10259276.00000000
U        0.00000000       0.00000000       0.76787879       0.00000000       0.00000000 10259276.00000000
2
Properties=species:S:1:pos:R:3:forces:R:3 energy=395290.28344254947 pbc="F F F"
U        0.00000000       0.00000000       0.00000000       0.00000000       0.00000000 -6104149.00000000
U        0.00000000       0.00000000       0.82666667       0.00000000       0.00000000 6104149.00000000
2
Properties=species:S:1:pos:R:3:forces:R:3 energy=137187.45531757164 pbc="F F F"
U        0.00000000       0.00000000       0.00000000       0.00000000       0.00000000 -2863854.00000000
U        0.00000000       0.00000000       0.88545455       0.00000000       0.00000000 2863854.00000000
2
Properties=species:S:1:pos:R:3:forces:R:3 energy=32452.871333225146 pbc="F F F"
U        0.00000000       0.00000000       0.00000000       0.00000000       0.00000000 -930460.00000000
U        0.00000000       0.00000000       0.94424242       0.00000000       0.00000000  930460.00000000
2
Properties=species:S:1:pos:R:3:forces:R:3 energy=3854.9772903007465 pbc="F F F"
U        0.00000000       0.00000000       0.00000000       0.00000000       0.00000000 -200323.50000000
U        0.00000000       0.00000000       1.00303030       0.00000000       0.00000000  200323.50000000
2
Properties=species:S:1:pos:R:3:forces:R:3 energy=112.55530853990808 pbc="F F F"
U        0.00000000       0.00000000       0.00000000       0.00000000       0.00000000    -491.13177490
U        0.00000000       0.00000000       1.06181818       0.00000000       0.00000000     491.13177490
2
Properties=species:S:1:pos:R:3:forces:R:3 energy=49.06685951292048 pbc="F F F"
U        0.00000000       0.00000000       0.00000000       0.00000000       0.00000000   -1113.59045410
U        0.00000000       0.00000000       1.12060606       0.00000000       0.00000000    1113.59045410
2
Properties=species:S:1:pos:R:3:forces:R:3 energy=7.8222459604942065 pbc="F F F"
U        0.00000000       0.00000000       0.00000000       0.00000000       0.00000000    -482.47631836
U        0.00000000       0.00000000       1.17939394       0.00000000       0.00000000     482.47631836
2
Properties=species:S:1:pos:R:3:forces:R:3 energy=-21.629108899597302 pbc="F F F"
U        0.00000000       0.00000000       0.00000000       0.00000000       0.00000000    -499.61517334
U        0.00000000       0.00000000       1.23818182       0.00000000       0.00000000     499.61517334
2
Properties=species:S:1:pos:R:3:forces:R:3 energy=-49.54840501219028 pbc="F F F"
U        0.00000000       0.00000000       0.00000000       0.00000000       0.00000000    -440.91778564
U        0.00000000       0.00000000       1.29696970       0.00000000       0.00000000     440.91778564
2
Properties=species:S:1:pos:R:3:forces:R:3 energy=-72.76444638706235 pbc="F F F"
U        0.00000000       0.00000000       0.00000000       0.00000000       0.00000000    -348.21292114
U        0.00000000       0.00000000       1.35575758       0.00000000       0.00000000     348.21292114
2
Properties=species:S:1:pos:R:3:forces:R:3 energy=-92.07992160700724 pbc="F F F"
U        0.00000000       0.00000000       0.00000000       0.00000000       0.00000000    -311.01116943
U        0.00000000       0.00000000       1.41454545       0.00000000       0.00000000     311.01116943
2
Properties=species:S:1:pos:R:3:forces:R:3 energy=-108.14458043105212 pbc="F F F"
U        0.00000000       0.00000000       0.00000000       0.00000000       0.00000000    -235.25973511
U        0.00000000       0.00000000       1.47333333       0.00000000       0.00000000     235.25973511
2
Properties=species:S:1:pos:R:3:forces:R:3 energy=-120.0625488199204 pbc="F F F"
U        0.00000000       0.00000000       0.00000000       0.00000000       0.00000000    -173.02456665
U        0.00000000       0.00000000       1.53212121       0.00000000       0.00000000     173.02456665
2
Properties=species:S:1:pos:R:3:forces:R:3 energy=-128.7680079648162 pbc="F F F"
U        0.00000000       0.00000000       0.00000000       0.00000000       0.00000000    -125.16161346
U        0.00000000       0.00000000       1.59090909       0.00000000       0.00000000     125.16161346
2
Properties=species:S:1:pos:R:3:forces:R:3 energy=-135.0016805283252 pbc="F F F"
U        0.00000000       0.00000000       0.00000000       0.00000000       0.00000000     -88.83673859
U        0.00000000       0.00000000       1.64969697       0.00000000       0.00000000      88.83673859
2
Properties=species:S:1:pos:R:3:forces:R:3 energy=-139.4428572565892 pbc="F F F"
U        0.00000000       0.00000000       0.00000000       0.00000000       0.00000000     -64.12254333
U        0.00000000       0.00000000       1.70848485       0.00000000       0.00000000      64.12254333
2
Properties=species:S:1:pos:R:3:forces:R:3 energy=-142.74200504637872 pbc="F F F"
U        0.00000000       0.00000000       0.00000000       0.00000000       0.00000000     -49.67191696
U        0.00000000       0.00000000       1.76727273       0.00000000       0.00000000      49.67191696
2
Properties=species:S:1:pos:R:3:forces:R:3 energy=-145.4056088703741 pbc="F F F"
U        0.00000000       0.00000000       0.00000000       0.00000000       0.00000000     -41.21927643
U        0.00000000       0.00000000       1.82606061       0.00000000       0.00000000      41.21927643
2
Properties=species:S:1:pos:R:3:forces:R:3 energy=-147.56202563999423 pbc="F F F"
U        0.00000000       0.00000000       0.00000000       0.00000000       0.00000000     -31.76145935
U        0.00000000       0.00000000       1.88484848       0.00000000       0.00000000      31.76145935
2
Properties=species:S:1:pos:R:3:forces:R:3 energy=-149.12788130962696 pbc="F F F"
U        0.00000000       0.00000000       0.00000000       0.00000000       0.00000000     -21.87879181
U        0.00000000       0.00000000       1.94363636       0.00000000       0.00000000      21.87879181
2
Properties=species:S:1:pos:R:3:forces:R:3 energy=-150.2085225272815 pbc="F F F"
U        0.00000000       0.00000000       0.00000000       0.00000000       0.00000000     -15.46736336
U        0.00000000       0.00000000       2.00242424       0.00000000       0.00000000      15.46736336
2
Properties=species:S:1:pos:R:3:forces:R:3 energy=-150.99382964187689 pbc="F F F"
U        0.00000000       0.00000000       0.00000000       0.00000000       0.00000000     -11.53350735
U        0.00000000       0.00000000       2.06121212       0.00000000       0.00000000      11.53350735
2
Properties=species:S:1:pos:R:3:forces:R:3 energy=-151.58937818009048 pbc="F F F"
U        0.00000000       0.00000000       0.00000000       0.00000000       0.00000000      -8.86467648
U        0.00000000       0.00000000       2.12000000       0.00000000       0.00000000       8.86467648
2
Properties=species:S:1:pos:R:3:forces:R:3 energy=-152.0447133951622 pbc="F F F"
U        0.00000000       0.00000000       0.00000000       0.00000000       0.00000000      -6.65478039
U        0.00000000       0.00000000       2.17878788       0.00000000       0.00000000       6.65478039
2
Properties=species:S:1:pos:R:3:forces:R:3 energy=-152.37385807305878 pbc="F F F"
U        0.00000000       0.00000000       0.00000000       0.00000000       0.00000000      -4.56227684
U        0.00000000       0.00000000       2.23757576       0.00000000       0.00000000       4.56227684
2
Properties=species:S:1:pos:R:3:forces:R:3 energy=-152.58450260228605 pbc="F F F"
U        0.00000000       0.00000000       0.00000000       0.00000000       0.00000000      -2.64136744
U        0.00000000       0.00000000       2.29636364       0.00000000       0.00000000       2.64136744
2
Properties=species:S:1:pos:R:3:forces:R:3 energy=-152.68992208181103 pbc="F F F"
U        0.00000000       0.00000000       0.00000000       0.00000000       0.00000000      -1.00654483
U        0.00000000       0.00000000       2.35515152       0.00000000       0.00000000       1.00654483
2
Properties=species:S:1:pos:R:3:forces:R:3 energy=-152.7130199064992 pbc="F F F"
U        0.00000000       0.00000000       0.00000000       0.00000000       0.00000000       0.10534142
U        0.00000000       0.00000000       2.41393939       0.00000000       0.00000000      -0.10534142
2
Properties=species:S:1:pos:R:3:forces:R:3 energy=-152.69333154495854 pbc="F F F"
U        0.00000000       0.00000000       0.00000000       0.00000000       0.00000000       0.42773765
U        0.00000000       0.00000000       2.47272727       0.00000000       0.00000000      -0.42773765
2
Properties=species:S:1:pos:R:3:forces:R:3 energy=-152.67532104199293 pbc="F F F"
U        0.00000000       0.00000000       0.00000000       0.00000000       0.00000000       0.12536833
U        0.00000000       0.00000000       2.53151515       0.00000000       0.00000000      -0.12536833
2
Properties=species:S:1:pos:R:3:forces:R:3 energy=-152.6788705363943 pbc="F F F"
U        0.00000000       0.00000000       0.00000000       0.00000000       0.00000000      -0.19893222
U        0.00000000       0.00000000       2.59030303       0.00000000       0.00000000       0.19893222
2
Properties=species:S:1:pos:R:3:forces:R:3 energy=-152.69078111226722 pbc="F F F"
U        0.00000000       0.00000000       0.00000000       0.00000000       0.00000000      -0.14114209
U        0.00000000       0.00000000       2.64909091       0.00000000       0.00000000       0.14114209
2
Properties=species:S:1:pos:R:3:forces:R:3 energy=-152.690972120842 pbc="F F F"
U        0.00000000       0.00000000       0.00000000       0.00000000       0.00000000       0.13908388
U        0.00000000       0.00000000       2.70787879       0.00000000       0.00000000      -0.13908388
2
Properties=species:S:1:pos:R:3:forces:R:3 energy=-152.67704784353683 pbc="F F F"
U        0.00000000       0.00000000       0.00000000       0.00000000       0.00000000       0.29769158
U        0.00000000       0.00000000       2.76666667       0.00000000       0.00000000      -0.29769158
2
Properties=species:S:1:pos:R:3:forces:R:3 energy=-152.6597961871981 pbc="F F F"
U        0.00000000       0.00000000       0.00000000       0.00000000       0.00000000       0.27226755
U        0.00000000       0.00000000       2.82545455       0.00000000       0.00000000      -0.27226755
2
Properties=species:S:1:pos:R:3:forces:R:3 energy=-152.64419139034732 pbc="F F F"
U        0.00000000       0.00000000       0.00000000       0.00000000       0.00000000       0.28918976
U        0.00000000       0.00000000       2.88424242       0.00000000       0.00000000      -0.28918976
2
Properties=species:S:1:pos:R:3:forces:R:3 energy=-152.62022358598915 pbc="F F F"
U        0.00000000       0.00000000       0.00000000       0.00000000       0.00000000       0.58335704
U        0.00000000       0.00000000       2.94303030       0.00000000       0.00000000      -0.58335704
2
Properties=species:S:1:pos:R:3:forces:R:3 energy=-152.5691549114628 pbc="F F F"
U        0.00000000       0.00000000       0.00000000       0.00000000       0.00000000       1.20043278
U        0.00000000       0.00000000       3.00181818       0.00000000       0.00000000      -1.20043278
2
Properties=species:S:1:pos:R:3:forces:R:3 energy=-152.47536020204143 pbc="F F F"
U        0.00000000       0.00000000       0.00000000       0.00000000       0.00000000       2.00457263
U        0.00000000       0.00000000       3.06060606       0.00000000       0.00000000      -2.00457263
2
Properties=species:S:1:pos:R:3:forces:R:3 energy=-152.33409388562765 pbc="F F F"
U        0.00000000       0.00000000       0.00000000       0.00000000       0.00000000       2.77629924
U        0.00000000       0.00000000       3.11939394       0.00000000       0.00000000      -2.77629924
2
Properties=species:S:1:pos:R:3:forces:R:3 energy=-152.15400753722878 pbc="F F F"
U        0.00000000       0.00000000       0.00000000       0.00000000       0.00000000       3.29177809
U        0.00000000       0.00000000       3.17818182       0.00000000       0.00000000      -3.29177809
2
Properties=species:S:1:pos:R:3:forces:R:3 energy=-151.95505955156827 pbc="F F F"
U        0.00000000       0.00000000       0.00000000       0.00000000       0.00000000       3.40504241
U        0.00000000       0.00000000       3.23696970       0.00000000       0.00000000      -3.40504241
2
Properties=species:S:1:pos:R:3:forces:R:3 energy=-151.76146542097985 pbc="F F F"
U        0.00000000       0.00000000       0.00000000       0.00000000       0.00000000       3.12530899
U        0.00000000       0.00000000       3.29575758       0.00000000       0.00000000      -3.12530899
2
Properties=species:S:1:pos:R:3:forces:R:3 energy=-151.59226799066846 pbc="F F F"
U        0.00000000       0.00000000       0.00000000       0.00000000       0.00000000       2.60873079
U        0.00000000       0.00000000       3.35454545       0.00000000       0.00000000      -2.60873079
2
Properties=species:S:1:pos:R:3:forces:R:3 energy=-151.4551880209982 pbc="F F F"
U        0.00000000       0.00000000       0.00000000       0.00000000       0.00000000       2.06771612
U        0.00000000       0.00000000       3.41333333       0.00000000       0.00000000      -2.06771612
2
Properties=species:S:1:pos:R:3:forces:R:3 energy=-151.34619698574818 pbc="F F F"
U        0.00000000       0.00000000       0.00000000       0.00000000       0.00000000       1.67432940
U        0.00000000       0.00000000       3.47212121       0.00000000       0.00000000      -1.67432940
2
Properties=species:S:1:pos:R:3:forces:R:3 energy=-151.25385061572345 pbc="F F F"
U        0.00000000       0.00000000       0.00000000       0.00000000       0.00000000       1.50581205
U        0.00000000       0.00000000       3.53090909       0.00000000       0.00000000      -1.50581205
2
Properties=species:S:1:pos:R:3:forces:R:3 energy=-151.1651329104279 pbc="F F F"
U        0.00000000       0.00000000       0.00000000       0.00000000       0.00000000       1.54058921
U        0.00000000       0.00000000       3.58969697       0.00000000       0.00000000      -1.54058921
2
Properties=species:S:1:pos:R:3:forces:R:3 energy=-151.07036961386228 pbc="F F F"
U        0.00000000       0.00000000       0.00000000       0.00000000       0.00000000       1.69467187
U        0.00000000       0.00000000       3.64848485       0.00000000       0.00000000      -1.69467187
2
Properties=species:S:1:pos:R:3:forces:R:3 energy=-150.9653795992437 pbc="F F F"
U        0.00000000       0.00000000       0.00000000       0.00000000       0.00000000       1.87561846
U        0.00000000       0.00000000       3.70727273       0.00000000       0.00000000      -1.87561846
2
Properties=species:S:1:pos:R:3:forces:R:3 energy=-150.85052885892995 pbc="F F F"
U        0.00000000       0.00000000       0.00000000       0.00000000       0.00000000       2.02317357
U        0.00000000       0.00000000       3.76606061       0.00000000       0.00000000      -2.02317357
2
Properties=species:S:1:pos:R:3:forces:R:3 energy=-150.72856369935172 pbc="F F F"
U        0.00000000       0.00000000       0.00000000       0.00000000       0.00000000       2.11709237
U        0.00000000       0.00000000       3.82484848       0.00000000       0.00000000      -2.11709237
2
Properties=species:S:1:pos:R:3:forces:R:3 energy=-150.60259666321986 pbc="F F F"
U        0.00000000       0.00000000       0.00000000       0.00000000       0.00000000       2.16057563
U        0.00000000       0.00000000       3.88363636       0.00000000       0.00000000      -2.16057563
2
Properties=species:S:1:pos:R:3:forces:R:3 energy=-150.4753435805686 pbc="F F F"
U        0.00000000       0.00000000       0.00000000       0.00000000       0.00000000       2.16296864
U        0.00000000       0.00000000       3.94242424       0.00000000       0.00000000      -2.16296864
2
Properties=species:S:1:pos:R:3:forces:R:3 energy=-150.34890986968114 pbc="F F F"
U        0.00000000       0.00000000       0.00000000       0.00000000       0.00000000       2.13346338
U        0.00000000       0.00000000       4.00121212       0.00000000       0.00000000      -2.13346338
2
Properties=species:S:1:pos:R:3:forces:R:3 energy=-150.2249279358832 pbc="F F F"
U        0.00000000       0.00000000       0.00000000       0.00000000       0.00000000       2.08149552
U        0.00000000       0.00000000       4.06000000       0.00000000       0.00000000      -2.08149552
2
Properties=species:S:1:pos:R:3:forces:R:3 energy=-150.10441981393097 pbc="F F F"
U        0.00000000       0.00000000       0.00000000       0.00000000       0.00000000       2.01747847
U        0.00000000       0.00000000       4.11878788       0.00000000       0.00000000      -2.01747847
2
Properties=species:S:1:pos:R:3:forces:R:3 energy=-149.98775140431545 pbc="F F F"
U        0.00000000       0.00000000       0.00000000       0.00000000       0.00000000       1.95204616
U        0.00000000       0.00000000       4.17757576       0.00000000       0.00000000      -1.95204616
2
Properties=species:S:1:pos:R:3:forces:R:3 energy=-149.8747545467425 pbc="F F F"
U        0.00000000       0.00000000       0.00000000       0.00000000       0.00000000       1.89377892
U        0.00000000       0.00000000       4.23636364       0.00000000       0.00000000      -1.89377892
2
Properties=species:S:1:pos:R:3:forces:R:3 energy=-149.7648795953524 pbc="F F F"
U        0.00000000       0.00000000       0.00000000       0.00000000       0.00000000       1.84617531
U        0.00000000       0.00000000       4.29515152       0.00000000       0.00000000      -1.84617531
2
Properties=species:S:1:pos:R:3:forces:R:3 energy=-149.65754638353945 pbc="F F F"
U        0.00000000       0.00000000       0.00000000       0.00000000       0.00000000       1.80554855
U        0.00000000       0.00000000       4.35393939       0.00000000       0.00000000      -1.80554855
2
Properties=species:S:1:pos:R:3:forces:R:3 energy=-149.55266301644448 pbc="F F F"
U        0.00000000       0.00000000       0.00000000       0.00000000       0.00000000       1.76108432
U        0.00000000       0.00000000       4.41272727       0.00000000       0.00000000      -1.76108432
2
Properties=species:S:1:pos:R:3:forces:R:3 energy=-149.45087001791552 pbc="F F F"
U        0.00000000       0.00000000       0.00000000       0.00000000       0.00000000       1.69738626
U        0.00000000       0.00000000       4.47151515       0.00000000       0.00000000      -1.69738626
2
Properties=species:S:1:pos:R:3:forces:R:3 energy=-149.35376921234365 pbc="F F F"
U        0.00000000       0.00000000       0.00000000       0.00000000       0.00000000       1.59876001
U        0.00000000       0.00000000       4.53030303       0.00000000       0.00000000      -1.59876001
2
Properties=species:S:1:pos:R:3:forces:R:3 energy=-149.26380165435063 pbc="F F F"
U        0.00000000       0.00000000       0.00000000       0.00000000       0.00000000       1.45428085
U        0.00000000       0.00000000       4.58909091       0.00000000       0.00000000      -1.45428085
2
Properties=species:S:1:pos:R:3:forces:R:3 energy=-149.18372883629635 pbc="F F F"
U        0.00000000       0.00000000       0.00000000       0.00000000       0.00000000       1.26250935
U        0.00000000       0.00000000       4.64787879       0.00000000       0.00000000      -1.26250935
2
Properties=species:S:1:pos:R:3:forces:R:3 energy=-149.11608336236912 pbc="F F F"
U        0.00000000       0.00000000       0.00000000       0.00000000       0.00000000       1.03414714
U        0.00000000       0.00000000       4.70666667       0.00000000       0.00000000      -1.03414714
2
Properties=species:S:1:pos:R:3:forces:R:3 energy=-149.0624212900963 pbc="F F F"
U        0.00000000       0.00000000       0.00000000       0.00000000       0.00000000       0.79161340
U        0.00000000       0.00000000       4.76545455       0.00000000       0.00000000      -0.79161340
2
Properties=species:S:1:pos:R:3:forces:R:3 energy=-149.02271175660718 pbc="F F F"
U        0.00000000       0.00000000       0.00000000       0.00000000       0.00000000       0.56432503
U        0.00000000       0.00000000       4.82424242       0.00000000       0.00000000      -0.56432503
2
Properties=species:S:1:pos:R:3:forces:R:3 energy=-148.99519967487387 pbc="F F F"
U        0.00000000       0.00000000       0.00000000       0.00000000       0.00000000       0.38107130
U        0.00000000       0.00000000       4.88303030       0.00000000       0.00000000      -0.38107130
2
Properties=species:S:1:pos:R:3:forces:R:3 energy=-148.97664986166512 pbc="F F F"
U        0.00000000       0.00000000       0.00000000       0.00000000       0.00000000       0.26131710
U        0.00000000       0.00000000       4.94181818       0.00000000       0.00000000      -0.26131710
2
Properties=species:S:1:pos:R:3:forces:R:3 energy=-148.96312524845968 pbc="F F F"
U        0.00000000       0.00000000       0.00000000       0.00000000       0.00000000       0.20951879
U        0.00000000       0.00000000       5.00060606       0.00000000       0.00000000      -0.20951879
2
Properties=species:S:1:pos:R:3:forces:R:3 energy=-148.95090240879009 pbc="F F F"
U        0.00000000       0.00000000       0.00000000       0.00000000       0.00000000       0.21415716
U        0.00000000       0.00000000       5.05939394       0.00000000       0.00000000      -0.21415716
2
Properties=species:S:1:pos:R:3:forces:R:3 energy=-148.9372802708953 pbc="F F F"
U        0.00000000       0.00000000       0.00000000       0.00000000       0.00000000       0.25260708
U        0.00000000       0.00000000       5.11818182       0.00000000       0.00000000      -0.25260708
2
Properties=species:S:1:pos:R:3:forces:R:3 energy=-148.92103789723143 pbc="F F F"
U        0.00000000       0.00000000       0.00000000       0.00000000       0.00000000       0.29985833
U        0.00000000       0.00000000       5.17696970       0.00000000       0.00000000      -0.29985833
2
Properties=species:S:1:pos:R:3:forces:R:3 energy=-148.90222085825724 pbc="F F F"
U        0.00000000       0.00000000       0.00000000       0.00000000       0.00000000       0.33745584
U        0.00000000       0.00000000       5.23575758       0.00000000       0.00000000      -0.33745584
2
Properties=species:S:1:pos:R:3:forces:R:3 energy=-148.88168346717825 pbc="F F F"
U        0.00000000       0.00000000       0.00000000       0.00000000       0.00000000       0.35857916
U        0.00000000       0.00000000       5.29454545       0.00000000       0.00000000      -0.35857916
2
Properties=species:S:1:pos:R:3:forces:R:3 energy=-148.8603411182897 pbc="F F F"
U        0.00000000       0.00000000       0.00000000       0.00000000       0.00000000       0.36549899
U        0.00000000       0.00000000       5.35333333       0.00000000       0.00000000      -0.36549899
2
Properties=species:S:1:pos:R:3:forces:R:3 energy=-148.83900243237727 pbc="F F F"
U        0.00000000       0.00000000       0.00000000       0.00000000       0.00000000       0.35727334
U        0.00000000       0.00000000       5.41212121       0.00000000       0.00000000      -0.35727334
2
Properties=species:S:1:pos:R:3:forces:R:3 energy=-148.81890331591808 pbc="F F F"
U        0.00000000       0.00000000       0.00000000       0.00000000       0.00000000       0.32113391
U        0.00000000       0.00000000       5.47090909       0.00000000       0.00000000      -0.32113391
2
Properties=species:S:1:pos:R:3:forces:R:3 energy=-148.80158490027182 pbc="F F F"
U        0.00000000       0.00000000       0.00000000       0.00000000       0.00000000       0.26856259
U        0.00000000       0.00000000       5.52969697       0.00000000       0.00000000      -0.26856259
2
Properties=species:S:1:pos:R:3:forces:R:3 energy=-148.78701671696163 pbc="F F F"
U        0.00000000       0.00000000       0.00000000       0.00000000       0.00000000       0.22923796
U        0.00000000       0.00000000       5.58848485       0.00000000       0.00000000      -0.22923796
2
Properties=species:S:1:pos:R:3:forces:R:3 energy=-148.77460377300045 pbc="F F F"
U        0.00000000       0.00000000       0.00000000       0.00000000       0.00000000       0.19216932
U        0.00000000       0.00000000       5.64727273       0.00000000       0.00000000      -0.19216932
2
Properties=species:S:1:pos:R:3:forces:R:3 energy=-148.76454458470155 pbc="F F F"
U        0.00000000       0.00000000       0.00000000       0.00000000       0.00000000       0.15120529
U        0.00000000       0.00000000       5.70606061       0.00000000       0.00000000      -0.15120529
2
Properties=species:S:1:pos:R:3:forces:R:3 energy=-148.75615272988858 pbc="F F F"
U        0.00000000       0.00000000       0.00000000       0.00000000       0.00000000       0.14331441
U        0.00000000       0.00000000       5.76484848       0.00000000       0.00000000      -0.14331441
2
Properties=species:S:1:pos:R:3:forces:R:3 energy=-148.74678871207036 pbc="F F F"
U        0.00000000       0.00000000       0.00000000       0.00000000       0.00000000       0.17450063
U        0.00000000       0.00000000       5.82363636       0.00000000       0.00000000      -0.17450063
2
Properties=species:S:1:pos:R:3:forces:R:3 energy=-148.73703269151693 pbc="F F F"
U        0.00000000       0.00000000       0.00000000       0.00000000       0.00000000       0.14203265
U        0.00000000       0.00000000       5.88242424       0.00000000       0.00000000      -0.14203265
2
Properties=species:S:1:pos:R:3:forces:R:3 energy=-148.73132538766237 pbc="F F F"
U        0.00000000       0.00000000       0.00000000       0.00000000       0.00000000       0.05074457
U        0.00000000       0.00000000       5.94121212       0.00000000       0.00000000      -0.05074457
2
Properties=species:S:1:pos:R:3:forces:R:3 energy=-148.73006398202085 pbc="F F F"
U        0.00000000       0.00000000       0.00000000       0.00000000       0.00000000       0.00648203
U        0.00000000       0.00000000       6.00000000       0.00000000       0.00000000      -0.00648203
