2
Properties=species:S:1:pos:R:3:forces:R:3 energy=3946.2069759257092 pbc="F F F"
Zn       0.00000000       0.00000000       0.00000000       0.00000000       0.00000000  -65823.37500000
Zn       0.00000000       0.00000000       0.18000000       0.00000000       0.00000000   65823.37500000
2
Properties=species:S:1:pos:R:3:forces:R:3 energy=1563.4650325663342 pbc="F F F"
Zn       0.00000000       0.00000000       0.00000000       0.00000000       0.00000000  -23651.87500000
Zn       0.00000000       0.00000000       0.23878788       0.00000000       0.00000000   23651.87500000
2
Properties=species:S:1:pos:R:3:forces:R:3 energy=644.139287937428 pbc="F F F"
Zn       0.00000000       0.00000000       0.00000000       0.00000000       0.00000000   -9877.99707031
Zn       0.00000000       0.00000000       0.29757576       0.00000000       0.00000000    9877.99707031
2
Properties=species:S:1:pos:R:3:forces:R:3 energy=246.02083395872774 pbc="F F F"
Zn       0.00000000       0.00000000       0.00000000       0.00000000       0.00000000   -4282.79101562
Zn       0.00000000       0.00000000       0.35636364       0.00000000       0.00000000    4282.79101562
2
Properties=species:S:1:pos:R:3:forces:R:3 energy=174.39694785112127 pbc="F F F"
Zn       0.00000000       0.00000000       0.00000000       0.00000000       0.00000000    -354.98260498
Zn       0.00000000       0.00000000       0.41515152       0.00000000       0.00000000     354.98260498
2
Properties=species:S:1:pos:R:3:forces:R:3 energy=244.07362937125987 pbc="F F F"
Zn       0.00000000       0.00000000       0.00000000       0.00000000       0.00000000    -463.43530273
Zn       0.00000000       0.00000000       0.47393939       0.00000000       0.00000000     463.43530273
2
Properties=species:S:1:pos:R:3:forces:R:3 energy=127.9786434109297 pbc="F F F"
Zn       0.00000000       0.00000000       0.00000000       0.00000000       0.00000000   -3695.77441406
Zn       0.00000000       0.00000000       0.53272727       0.00000000       0.00000000    3695.77441406
2
Properties=species:S:1:pos:R:3:forces:R:3 energy=10.953617095854218 pbc="F F F"
Zn       0.00000000       0.00000000       0.00000000       0.00000000       0.00000000     814.08874512
Zn       0.00000000       0.00000000       0.59151515       0.00000000       0.00000000    -814.08874512
2
Properties=species:S:1:pos:R:3:forces:R:3 energy=24.871206291395843 pbc="F F F"
Zn       0.00000000       0.00000000       0.00000000       0.00000000       0.00000000    -411.66015625
Zn       0.00000000       0.00000000       0.65030303       0.00000000       0.00000000     411.66015625
2
Properties=species:S:1:pos:R:3:forces:R:3 energy=12.757963199455878 pbc="F F F"
Zn       0.00000000       0.00000000       0.00000000       0.00000000       0.00000000      -8.12585735
Zn       0.00000000       0.00000000       0.70909091       0.00000000       0.00000000       8.12585735
2
Properties=species:S:1:pos:R:3:forces:R:3 energy=17.108911552203047 pbc="F F F"
Zn       0.00000000       0.00000000       0.00000000       0.00000000       0.00000000     161.39820862
Zn       0.00000000       0.00000000       0.76787879       0.00000000       0.00000000    -161.39820862
2
Properties=species:S:1:pos:R:3:forces:R:3 energy=29.687677449062114 pbc="F F F"
Zn       0.00000000       0.00000000       0.00000000       0.00000000       0.00000000     223.71002197
Zn       0.00000000       0.00000000       0.82666667       0.00000000       0.00000000    -223.71002197
2
Properties=species:S:1:pos:R:3:forces:R:3 energy=39.97477160487083 pbc="F F F"
Zn       0.00000000       0.00000000       0.00000000       0.00000000       0.00000000     119.21337128
Zn       0.00000000       0.00000000       0.88545455       0.00000000       0.00000000    -119.21337128
2
Properties=species:S:1:pos:R:3:forces:R:3 energy=43.86583916439857 pbc="F F F"
Zn       0.00000000       0.00000000       0.00000000       0.00000000       0.00000000      15.74190426
Zn       0.00000000       0.00000000       0.94424242       0.00000000       0.00000000     -15.74190426
2
Properties=species:S:1:pos:R:3:forces:R:3 energy=41.885298009594344 pbc="F F F"
Zn       0.00000000       0.00000000       0.00000000       0.00000000       0.00000000     -82.81921387
Zn       0.00000000       0.00000000       1.00303030       0.00000000       0.00000000      82.81921387
2
Properties=species:S:1:pos:R:3:forces:R:3 energy=34.642988540652155 pbc="F F F"
Zn       0.00000000       0.00000000       0.00000000       0.00000000       0.00000000    -156.18702698
Zn       0.00000000       0.00000000       1.06181818       0.00000000       0.00000000     156.18702698
2
Properties=species:S:1:pos:R:3:forces:R:3 energy=24.63427209124069 pbc="F F F"
Zn       0.00000000       0.00000000       0.00000000       0.00000000       0.00000000    -174.40197754
Zn       0.00000000       0.00000000       1.12060606       0.00000000       0.00000000     174.40197754
2
Properties=species:S:1:pos:R:3:forces:R:3 energy=15.133265186184737 pbc="F F F"
Zn       0.00000000       0.00000000       0.00000000       0.00000000       0.00000000    -141.06550598
Zn       0.00000000       0.00000000       1.17939394       0.00000000       0.00000000     141.06550598
2
Properties=species:S:1:pos:R:3:forces:R:3 energy=8.721777831754405 pbc="F F F"
Zn       0.00000000       0.00000000       0.00000000       0.00000000       0.00000000     -79.15293884
Zn       0.00000000       0.00000000       1.23818182       0.00000000       0.00000000      79.15293884
2
Properties=species:S:1:pos:R:3:forces:R:3 energy=4.891617976659144 pbc="F F F"
Zn       0.00000000       0.00000000       0.00000000       0.00000000       0.00000000     -57.34503174
Zn       0.00000000       0.00000000       1.29696970       0.00000000       0.00000000      57.34503174
2
Properties=species:S:1:pos:R:3:forces:R:3 energy=1.7185569645653929 pbc="F F F"
Zn       0.00000000       0.00000000       0.00000000       0.00000000       0.00000000     -50.92116165
Zn       0.00000000       0.00000000       1.35575758       0.00000000       0.00000000      50.92116165
2
Properties=species:S:1:pos:R:3:forces:R:3 energy=-1.0981969267293503 pbc="F F F"
Zn       0.00000000       0.00000000       0.00000000       0.00000000       0.00000000     -44.86231995
Zn       0.00000000       0.00000000       1.41454545       0.00000000       0.00000000      44.86231995
2
Properties=species:S:1:pos:R:3:forces:R:3 energy=-3.5516055704745857 pbc="F F F"
Zn       0.00000000       0.00000000       0.00000000       0.00000000       0.00000000     -38.58934021
Zn       0.00000000       0.00000000       1.47333333       0.00000000       0.00000000      38.58934021
2
Properties=species:S:1:pos:R:3:forces:R:3 energy=-5.637982999598292 pbc="F F F"
Zn       0.00000000       0.00000000       0.00000000       0.00000000       0.00000000     -32.44625092
Zn       0.00000000       0.00000000       1.53212121       0.00000000       0.00000000      32.44625092
2
Properties=species:S:1:pos:R:3:forces:R:3 energy=-7.3757875694071355 pbc="F F F"
Zn       0.00000000       0.00000000       0.00000000       0.00000000       0.00000000     -26.77079773
Zn       0.00000000       0.00000000       1.59090909       0.00000000       0.00000000      26.77079773
2
Properties=species:S:1:pos:R:3:forces:R:3 energy=-8.797802803249052 pbc="F F F"
Zn       0.00000000       0.00000000       0.00000000       0.00000000       0.00000000     -21.71415329
Zn       0.00000000       0.00000000       1.64969697       0.00000000       0.00000000      21.71415329
2
Properties=species:S:1:pos:R:3:forces:R:3 energy=-9.94125828106155 pbc="F F F"
Zn       0.00000000       0.00000000       0.00000000       0.00000000       0.00000000     -17.29080582
Zn       0.00000000       0.00000000       1.70848485       0.00000000       0.00000000      17.29080582
2
Properties=species:S:1:pos:R:3:forces:R:3 energy=-10.843148131348036 pbc="F F F"
Zn       0.00000000       0.00000000       0.00000000       0.00000000       0.00000000     -13.50087929
Zn       0.00000000       0.00000000       1.76727273       0.00000000       0.00000000      13.50087929
2
Properties=species:S:1:pos:R:3:forces:R:3 energy=-11.54209933460052 pbc="F F F"
Zn       0.00000000       0.00000000       0.00000000       0.00000000       0.00000000     -10.39758301
Zn       0.00000000       0.00000000       1.82606061       0.00000000       0.00000000      10.39758301
2
Properties=species:S:1:pos:R:3:forces:R:3 energy=-12.079943540923963 pbc="F F F"
Zn       0.00000000       0.00000000       0.00000000       0.00000000       0.00000000      -8.02050495
Zn       0.00000000       0.00000000       1.88484848       0.00000000       0.00000000       8.02050495
2
Properties=species:S:1:pos:R:3:forces:R:3 energy=-12.498524413139194 pbc="F F F"
Zn       0.00000000       0.00000000       0.00000000       0.00000000       0.00000000      -6.32455397
Zn       0.00000000       0.00000000       1.94363636       0.00000000       0.00000000       6.32455397
2
Properties=species:S:1:pos:R:3:forces:R:3 energy=-12.834362194369547 pbc="F F F"
Zn       0.00000000       0.00000000       0.00000000       0.00000000       0.00000000      -5.17840052
Zn       0.00000000       0.00000000       2.00242424       0.00000000       0.00000000       5.17840052
2
Properties=species:S:1:pos:R:3:forces:R:3 energy=-13.1146803490506 pbc="F F F"
Zn       0.00000000       0.00000000       0.00000000       0.00000000       0.00000000      -4.40524054
Zn       0.00000000       0.00000000       2.06121212       0.00000000       0.00000000       4.40524054
2
Properties=species:S:1:pos:R:3:forces:R:3 energy=-13.35628110234769 pbc="F F F"
Zn       0.00000000       0.00000000       0.00000000       0.00000000       0.00000000      -3.83656526
Zn       0.00000000       0.00000000       2.12000000       0.00000000       0.00000000       3.83656526
2
Properties=species:S:1:pos:R:3:forces:R:3 energy=-13.567508450991621 pbc="F F F"
Zn       0.00000000       0.00000000       0.00000000       0.00000000       0.00000000      -3.35921645
Zn       0.00000000       0.00000000       2.17878788       0.00000000       0.00000000       3.35921645
2
Properties=species:S:1:pos:R:3:forces:R:3 energy=-13.75216773588898 pbc="F F F"
Zn       0.00000000       0.00000000       0.00000000       0.00000000       0.00000000      -2.93072629
Zn       0.00000000       0.00000000       2.23757576       0.00000000       0.00000000       2.93072629
2
Properties=species:S:1:pos:R:3:forces:R:3 energy=-13.913126470355136 pbc="F F F"
Zn       0.00000000       0.00000000       0.00000000       0.00000000       0.00000000      -2.55526948
Zn       0.00000000       0.00000000       2.29636364       0.00000000       0.00000000       2.55526948
2
Properties=species:S:1:pos:R:3:forces:R:3 energy=-14.053852824591358 pbc="F F F"
Zn       0.00000000       0.00000000       0.00000000       0.00000000       0.00000000      -2.24266601
Zn       0.00000000       0.00000000       2.35515152       0.00000000       0.00000000       2.24266601
2
Properties=species:S:1:pos:R:3:forces:R:3 energy=-14.1778408370966 pbc="F F F"
Zn       0.00000000       0.00000000       0.00000000       0.00000000       0.00000000      -1.98198771
Zn       0.00000000       0.00000000       2.41393939       0.00000000       0.00000000       1.98198771
2
Properties=species:S:1:pos:R:3:forces:R:3 energy=-14.287325077907447 pbc="F F F"
Zn       0.00000000       0.00000000       0.00000000       0.00000000       0.00000000      -1.74370742
Zn       0.00000000       0.00000000       2.47272727       0.00000000       0.00000000       1.74370742
2
Properties=species:S:1:pos:R:3:forces:R:3 energy=-14.382725039364216 pbc="F F F"
Zn       0.00000000       0.00000000       0.00000000       0.00000000       0.00000000      -1.49919260
Zn       0.00000000       0.00000000       2.53151515       0.00000000       0.00000000       1.49919260
2
Properties=species:S:1:pos:R:3:forces:R:3 energy=-14.463238170388957 pbc="F F F"
Zn       0.00000000       0.00000000       0.00000000       0.00000000       0.00000000      -1.23732376
Zn       0.00000000       0.00000000       2.59030303       0.00000000       0.00000000       1.23732376
2
Properties=species:S:1:pos:R:3:forces:R:3 energy=-14.52806394798638 pbc="F F F"
Zn       0.00000000       0.00000000       0.00000000       0.00000000       0.00000000      -0.96886903
Zn       0.00000000       0.00000000       2.64909091       0.00000000       0.00000000       0.96886903
2
Properties=species:S:1:pos:R:3:forces:R:3 energy=-14.57752444635922 pbc="F F F"
Zn       0.00000000       0.00000000       0.00000000       0.00000000       0.00000000      -0.71922868
Zn       0.00000000       0.00000000       2.70787879       0.00000000       0.00000000       0.71922868
2
Properties=species:S:1:pos:R:3:forces:R:3 energy=-14.613468165231696 pbc="F F F"
Zn       0.00000000       0.00000000       0.00000000       0.00000000       0.00000000      -0.51193869
Zn       0.00000000       0.00000000       2.76666667       0.00000000       0.00000000       0.51193869
2
Properties=species:S:1:pos:R:3:forces:R:3 energy=-14.63874489060409 pbc="F F F"
Zn       0.00000000       0.00000000       0.00000000       0.00000000       0.00000000      -0.35667899
Zn       0.00000000       0.00000000       2.82545455       0.00000000       0.00000000       0.35667899
2
Properties=species:S:1:pos:R:3:forces:R:3 energy=-14.656358554035055 pbc="F F F"
Zn       0.00000000       0.00000000       0.00000000       0.00000000       0.00000000      -0.24989067
Zn       0.00000000       0.00000000       2.88424242       0.00000000       0.00000000       0.24989067
2
Properties=species:S:1:pos:R:3:forces:R:3 energy=-14.668878500898826 pbc="F F F"
Zn       0.00000000       0.00000000       0.00000000       0.00000000       0.00000000      -0.18150192
Zn       0.00000000       0.00000000       2.94303030       0.00000000       0.00000000       0.18150192
2
Properties=species:S:1:pos:R:3:forces:R:3 energy=-14.678247316022688 pbc="F F F"
Zn       0.00000000       0.00000000       0.00000000       0.00000000       0.00000000      -0.14117889
Zn       0.00000000       0.00000000       3.00181818       0.00000000       0.00000000       0.14117889
2
Properties=species:S:1:pos:R:3:forces:R:3 energy=-14.685872344873818 pbc="F F F"
Zn       0.00000000       0.00000000       0.00000000       0.00000000       0.00000000      -0.12108660
Zn       0.00000000       0.00000000       3.06060606       0.00000000       0.00000000       0.12108660
2
Properties=species:S:1:pos:R:3:forces:R:3 energy=-14.692767111839693 pbc="F F F"
Zn       0.00000000       0.00000000       0.00000000       0.00000000       0.00000000      -0.11547270
Zn       0.00000000       0.00000000       3.11939394       0.00000000       0.00000000       0.11547270
2
Properties=species:S:1:pos:R:3:forces:R:3 energy=-14.699635398471507 pbc="F F F"
Zn       0.00000000       0.00000000       0.00000000       0.00000000       0.00000000      -0.11934675
Zn       0.00000000       0.00000000       3.17818182       0.00000000       0.00000000       0.11934675
2
Properties=species:S:1:pos:R:3:forces:R:3 energy=-14.706890865003743 pbc="F F F"
Zn       0.00000000       0.00000000       0.00000000       0.00000000       0.00000000      -0.12790793
Zn       0.00000000       0.00000000       3.23696970       0.00000000       0.00000000       0.12790793
2
Properties=species:S:1:pos:R:3:forces:R:3 energy=-14.71468103159625 pbc="F F F"
Zn       0.00000000       0.00000000       0.00000000       0.00000000       0.00000000      -0.13686860
Zn       0.00000000       0.00000000       3.29575758       0.00000000       0.00000000       0.13686860
2
Properties=species:S:1:pos:R:3:forces:R:3 energy=-14.722928325927631 pbc="F F F"
Zn       0.00000000       0.00000000       0.00000000       0.00000000       0.00000000      -0.14307266
Zn       0.00000000       0.00000000       3.35454545       0.00000000       0.00000000       0.14307266
2
Properties=species:S:1:pos:R:3:forces:R:3 energy=-14.731415932890645 pbc="F F F"
Zn       0.00000000       0.00000000       0.00000000       0.00000000       0.00000000      -0.14488265
Zn       0.00000000       0.00000000       3.41333333       0.00000000       0.00000000       0.14488265
2
Properties=species:S:1:pos:R:3:forces:R:3 energy=-14.739873626864602 pbc="F F F"
Zn       0.00000000       0.00000000       0.00000000       0.00000000       0.00000000      -0.14215519
Zn       0.00000000       0.00000000       3.47212121       0.00000000       0.00000000       0.14215519
2
Properties=species:S:1:pos:R:3:forces:R:3 energy=-14.748059794042216 pbc="F F F"
Zn       0.00000000       0.00000000       0.00000000       0.00000000       0.00000000      -0.13585900
Zn       0.00000000       0.00000000       3.53090909       0.00000000       0.00000000       0.13585900
2
Properties=species:S:1:pos:R:3:forces:R:3 energy=-14.755808160887195 pbc="F F F"
Zn       0.00000000       0.00000000       0.00000000       0.00000000       0.00000000      -0.12753220
Zn       0.00000000       0.00000000       3.58969697       0.00000000       0.00000000       0.12753220
2
Properties=species:S:1:pos:R:3:forces:R:3 energy=-14.763045924241677 pbc="F F F"
Zn       0.00000000       0.00000000       0.00000000       0.00000000       0.00000000      -0.11877210
Zn       0.00000000       0.00000000       3.64848485       0.00000000       0.00000000       0.11877210
2
Properties=species:S:1:pos:R:3:forces:R:3 energy=-14.769789935045052 pbc="F F F"
Zn       0.00000000       0.00000000       0.00000000       0.00000000       0.00000000      -0.11087915
Zn       0.00000000       0.00000000       3.70727273       0.00000000       0.00000000       0.11087915
2
Properties=species:S:1:pos:R:3:forces:R:3 energy=-14.776117149477313 pbc="F F F"
Zn       0.00000000       0.00000000       0.00000000       0.00000000       0.00000000      -0.10469526
Zn       0.00000000       0.00000000       3.76606061       0.00000000       0.00000000       0.10469526
2
Properties=species:S:1:pos:R:3:forces:R:3 energy=-14.782139819963582 pbc="F F F"
Zn       0.00000000       0.00000000       0.00000000       0.00000000       0.00000000      -0.10059376
Zn       0.00000000       0.00000000       3.82484848       0.00000000       0.00000000       0.10059376
2
Properties=species:S:1:pos:R:3:forces:R:3 energy=-14.78798453492999 pbc="F F F"
Zn       0.00000000       0.00000000       0.00000000       0.00000000       0.00000000      -0.09855223
Zn       0.00000000       0.00000000       3.88363636       0.00000000       0.00000000       0.09855223
2
Properties=species:S:1:pos:R:3:forces:R:3 energy=-14.793761702809466 pbc="F F F"
Zn       0.00000000       0.00000000       0.00000000       0.00000000       0.00000000      -0.09825603
Zn       0.00000000       0.00000000       3.94242424       0.00000000       0.00000000       0.09825603
2
Properties=species:S:1:pos:R:3:forces:R:3 energy=-14.799561734968606 pbc="F F F"
Zn       0.00000000       0.00000000       0.00000000       0.00000000       0.00000000      -0.09919738
Zn       0.00000000       0.00000000       4.00121212       0.00000000       0.00000000       0.09919738
2
Properties=species:S:1:pos:R:3:forces:R:3 energy=-14.805436950446285 pbc="F F F"
Zn       0.00000000       0.00000000       0.00000000       0.00000000       0.00000000      -0.10076489
Zn       0.00000000       0.00000000       4.06000000       0.00000000       0.00000000       0.10076489
2
Properties=species:S:1:pos:R:3:forces:R:3 energy=-14.811409184757338 pbc="F F F"
Zn       0.00000000       0.00000000       0.00000000       0.00000000       0.00000000      -0.10233542
Zn       0.00000000       0.00000000       4.11878788       0.00000000       0.00000000       0.10233542
2
Properties=species:S:1:pos:R:3:forces:R:3 energy=-14.817459325609612 pbc="F F F"
Zn       0.00000000       0.00000000       0.00000000       0.00000000       0.00000000      -0.10336147
Zn       0.00000000       0.00000000       4.17757576       0.00000000       0.00000000       0.10336147
2
Properties=species:S:1:pos:R:3:forces:R:3 energy=-14.82354351903171 pbc="F F F"
Zn       0.00000000       0.00000000       0.00000000       0.00000000       0.00000000      -0.10345180
Zn       0.00000000       0.00000000       4.23636364       0.00000000       0.00000000       0.10345180
2
Properties=species:S:1:pos:R:3:forces:R:3 energy=-14.82959986093231 pbc="F F F"
Zn       0.00000000       0.00000000       0.00000000       0.00000000       0.00000000      -0.10241427
Zn       0.00000000       0.00000000       4.29515152       0.00000000       0.00000000       0.10241427
2
Properties=species:S:1:pos:R:3:forces:R:3 energy=-14.835561738245168 pbc="F F F"
Zn       0.00000000       0.00000000       0.00000000       0.00000000       0.00000000      -0.10024187
Zn       0.00000000       0.00000000       4.35393939       0.00000000       0.00000000       0.10024187
2
Properties=species:S:1:pos:R:3:forces:R:3 energy=-14.841366425461219 pbc="F F F"
Zn       0.00000000       0.00000000       0.00000000       0.00000000       0.00000000      -0.09703878
Zn       0.00000000       0.00000000       4.41272727       0.00000000       0.00000000       0.09703878
2
Properties=species:S:1:pos:R:3:forces:R:3 energy=-14.846954132538169 pbc="F F F"
Zn       0.00000000       0.00000000       0.00000000       0.00000000       0.00000000      -0.09292918
Zn       0.00000000       0.00000000       4.47151515       0.00000000       0.00000000       0.09292918
2
Properties=species:S:1:pos:R:3:forces:R:3 energy=-14.85227562875133 pbc="F F F"
Zn       0.00000000       0.00000000       0.00000000       0.00000000       0.00000000      -0.08798531
Zn       0.00000000       0.00000000       4.53030303       0.00000000       0.00000000       0.08798531
2
Properties=species:S:1:pos:R:3:forces:R:3 energy=-14.85728270832634 pbc="F F F"
Zn       0.00000000       0.00000000       0.00000000       0.00000000       0.00000000      -0.08221363
Zn       0.00000000       0.00000000       4.58909091       0.00000000       0.00000000       0.08221363
2
Properties=species:S:1:pos:R:3:forces:R:3 energy=-14.861925335751831 pbc="F F F"
Zn       0.00000000       0.00000000       0.00000000       0.00000000       0.00000000      -0.07559846
Zn       0.00000000       0.00000000       4.64787879       0.00000000       0.00000000       0.07559846
2
Properties=species:S:1:pos:R:3:forces:R:3 energy=-14.866155442261748 pbc="F F F"
Zn       0.00000000       0.00000000       0.00000000       0.00000000       0.00000000      -0.06816581
Zn       0.00000000       0.00000000       4.70666667       0.00000000       0.00000000       0.06816581
2
Properties=species:S:1:pos:R:3:forces:R:3 energy=-14.869926930587061 pbc="F F F"
Zn       0.00000000       0.00000000       0.00000000       0.00000000       0.00000000      -0.06003886
Zn       0.00000000       0.00000000       4.76545455       0.00000000       0.00000000       0.06003886
2
Properties=species:S:1:pos:R:3:forces:R:3 energy=-14.8732052069472 pbc="F F F"
Zn       0.00000000       0.00000000       0.00000000       0.00000000       0.00000000      -0.05145217
Zn       0.00000000       0.00000000       4.82424242       0.00000000       0.00000000       0.05145217
2
Properties=species:S:1:pos:R:3:forces:R:3 energy=-14.87597384489094 pbc="F F F"
Zn       0.00000000       0.00000000       0.00000000       0.00000000       0.00000000      -0.04274056
Zn       0.00000000       0.00000000       4.88303030       0.00000000       0.00000000       0.04274056
2
Properties=species:S:1:pos:R:3:forces:R:3 energy=-14.8782355286753 pbc="F F F"
Zn       0.00000000       0.00000000       0.00000000       0.00000000       0.00000000      -0.03431082
Zn       0.00000000       0.00000000       4.94181818       0.00000000       0.00000000       0.03431082
2
Properties=species:S:1:pos:R:3:forces:R:3 energy=-14.88002253101172 pbc="F F F"
Zn       0.00000000       0.00000000       0.00000000       0.00000000       0.00000000      -0.02664154
Zn       0.00000000       0.00000000       5.00060606       0.00000000       0.00000000       0.02664154
2
Properties=species:S:1:pos:R:3:forces:R:3 energy=-14.881393857586819 pbc="F F F"
Zn       0.00000000       0.00000000       0.00000000       0.00000000       0.00000000      -0.02024969
Zn       0.00000000       0.00000000       5.05939394       0.00000000       0.00000000       0.02024969
2
Properties=species:S:1:pos:R:3:forces:R:3 energy=-14.882438076407105 pbc="F F F"
Zn       0.00000000       0.00000000       0.00000000       0.00000000       0.00000000      -0.01562405
Zn       0.00000000       0.00000000       5.11818182       0.00000000       0.00000000       0.01562405
2
Properties=species:S:1:pos:R:3:forces:R:3 energy=-14.883271409658404 pbc="F F F"
Zn       0.00000000       0.00000000       0.00000000       0.00000000       0.00000000      -0.01307646
Zn       0.00000000       0.00000000       5.17696970       0.00000000       0.00000000       0.01307646
2
Properties=species:S:1:pos:R:3:forces:R:3 energy=-14.884016748119148 pbc="F F F"
Zn       0.00000000       0.00000000       0.00000000       0.00000000       0.00000000      -0.01259061
Zn       0.00000000       0.00000000       5.23575758       0.00000000       0.00000000       0.01259061
2
Properties=species:S:1:pos:R:3:forces:R:3 energy=-14.88478359469739 pbc="F F F"
Zn       0.00000000       0.00000000       0.00000000       0.00000000       0.00000000      -0.01372291
Zn       0.00000000       0.00000000       5.29454545       0.00000000       0.00000000       0.01372291
2
Properties=species:S:1:pos:R:3:forces:R:3 energy=-14.885643283153772 pbc="F F F"
Zn       0.00000000       0.00000000       0.00000000       0.00000000       0.00000000      -0.01548396
Zn       0.00000000       0.00000000       5.35333333       0.00000000       0.00000000       0.01548396
2
Properties=species:S:1:pos:R:3:forces:R:3 energy=-14.886581271418994 pbc="F F F"
Zn       0.00000000       0.00000000       0.00000000       0.00000000       0.00000000      -0.01606136
Zn       0.00000000       0.00000000       5.41212121       0.00000000       0.00000000       0.01606136
2
Properties=species:S:1:pos:R:3:forces:R:3 energy=-14.887472337746049 pbc="F F F"
Zn       0.00000000       0.00000000       0.00000000       0.00000000       0.00000000      -0.01379125
Zn       0.00000000       0.00000000       5.47090909       0.00000000       0.00000000       0.01379125
2
Properties=species:S:1:pos:R:3:forces:R:3 energy=-14.888190254048574 pbc="F F F"
Zn       0.00000000       0.00000000       0.00000000       0.00000000       0.00000000      -0.01099508
Zn       0.00000000       0.00000000       5.52969697       0.00000000       0.00000000       0.01099508
2
Properties=species:S:1:pos:R:3:forces:R:3 energy=-14.888847156966333 pbc="F F F"
Zn       0.00000000       0.00000000       0.00000000       0.00000000       0.00000000      -0.01207187
Zn       0.00000000       0.00000000       5.58848485       0.00000000       0.00000000       0.01207187
2
Properties=species:S:1:pos:R:3:forces:R:3 energy=-14.889641900977617 pbc="F F F"
Zn       0.00000000       0.00000000       0.00000000       0.00000000       0.00000000      -0.01470085
Zn       0.00000000       0.00000000       5.64727273       0.00000000       0.00000000       0.01470085
2
Properties=species:S:1:pos:R:3:forces:R:3 energy=-14.890480497605223 pbc="F F F"
Zn       0.00000000       0.00000000       0.00000000       0.00000000       0.00000000      -0.01268951
Zn       0.00000000       0.00000000       5.70606061       0.00000000       0.00000000       0.01268951
2
Properties=species:S:1:pos:R:3:forces:R:3 energy=-14.891017130539664 pbc="F F F"
Zn       0.00000000       0.00000000       0.00000000       0.00000000       0.00000000      -0.00491296
Zn       0.00000000       0.00000000       5.76484848       0.00000000       0.00000000       0.00491296
2
Properties=species:S:1:pos:R:3:forces:R:3 energy=-14.891068045936736 pbc="F F F"
Zn       0.00000000       0.00000000       0.00000000       0.00000000       0.00000000       0.00252148
Zn       0.00000000       0.00000000       5.82363636       0.00000000       0.00000000      -0.00252148
2
Properties=species:S:1:pos:R:3:forces:R:3 energy=-14.890826124386965 pbc="F F F"
Zn       0.00000000       0.00000000       0.00000000       0.00000000       0.00000000       0.00486436
Zn       0.00000000       0.00000000       5.88242424       0.00000000       0.00000000      -0.00486436
2
Properties=species:S:1:pos:R:3:forces:R:3 energy=-14.890557630697986 pbc="F F F"
Zn       0.00000000       0.00000000       0.00000000       0.00000000       0.00000000       0.00405747
Zn       0.00000000       0.00000000       5.94121212       0.00000000       0.00000000      -0.00405747
2
Properties=species:S:1:pos:R:3:forces:R:3 energy=-14.890344709157802 pbc="F F F"
Zn       0.00000000       0.00000000       0.00000000       0.00000000       0.00000000       0.00336767
Zn       0.00000000       0.00000000       6.00000000       0.00000000       0.00000000      -0.00336767
