2
Properties=species:S:1:pos:R:3:forces:R:3 energy=4615259.984504033 pbc="F F F"
Zr       0.00000000       0.00000000       0.00000000       0.00000000       0.00000000 -785852.37500000
Zr       0.00000000       0.00000000       0.18000000       0.00000000       0.00000000  785852.37500000
2
Properties=species:S:1:pos:R:3:forces:R:3 energy=4540954.984504033 pbc="F F F"
Zr       0.00000000       0.00000000       0.00000000       0.00000000       0.00000000 -1888033.87500000
Zr       0.00000000       0.00000000       0.23878788       0.00000000       0.00000000 1888033.87500000
2
Properties=species:S:1:pos:R:3:forces:R:3 energy=4374464.984504033 pbc="F F F"
Zr       0.00000000       0.00000000       0.00000000       0.00000000       0.00000000 -3951776.75000000
Zr       0.00000000       0.00000000       0.29757576       0.00000000       0.00000000 3951776.75000000
2
Properties=species:S:1:pos:R:3:forces:R:3 energy=4056441.9845040324 pbc="F F F"
Zr       0.00000000       0.00000000       0.00000000       0.00000000       0.00000000 -7019822.00000000
Zr       0.00000000       0.00000000       0.35636364       0.00000000       0.00000000 7019822.00000000
2
Properties=species:S:1:pos:R:3:forces:R:3 energy=3536275.2345040343 pbc="F F F"
Zr       0.00000000       0.00000000       0.00000000       0.00000000       0.00000000 -10716404.00000000
Zr       0.00000000       0.00000000       0.41515152       0.00000000       0.00000000 10716404.00000000
2
Properties=species:S:1:pos:R:3:forces:R:3 energy=2804090.9845040343 pbc="F F F"
Zr       0.00000000       0.00000000       0.00000000       0.00000000       0.00000000 -14001549.00000000
Zr       0.00000000       0.00000000       0.47393939       0.00000000       0.00000000 14001549.00000000
2
Properties=species:S:1:pos:R:3:forces:R:3 energy=1929311.234504034 pbc="F F F"
Zr       0.00000000       0.00000000       0.00000000       0.00000000       0.00000000 -15288884.00000000
Zr       0.00000000       0.00000000       0.53272727       0.00000000       0.00000000 15288884.00000000
2
Properties=species:S:1:pos:R:3:forces:R:3 energy=1072036.6095040373 pbc="F F F"
Zr       0.00000000       0.00000000       0.00000000       0.00000000       0.00000000 -13290335.00000000
Zr       0.00000000       0.00000000       0.59151515       0.00000000       0.00000000 13290335.00000000
2
Properties=species:S:1:pos:R:3:forces:R:3 energy=423561.297004042 pbc="F F F"
Zr       0.00000000       0.00000000       0.00000000       0.00000000       0.00000000 -8402831.00000000
Zr       0.00000000       0.00000000       0.65030303       0.00000000       0.00000000 8402831.00000000
2
Properties=species:S:1:pos:R:3:forces:R:3 energy=90580.75794154676 pbc="F F F"
Zr       0.00000000       0.00000000       0.00000000       0.00000000       0.00000000 -3152001.25000000
Zr       0.00000000       0.00000000       0.70909091       0.00000000       0.00000000 3152001.25000000
2
Properties=species:S:1:pos:R:3:forces:R:3 energy=4458.473273587516 pbc="F F F"
Zr       0.00000000       0.00000000       0.00000000       0.00000000       0.00000000 -339567.65625000
Zr       0.00000000       0.00000000       0.76787879       0.00000000       0.00000000  339567.65625000
2
Properties=species:S:1:pos:R:3:forces:R:3 energy=226.82077726388027 pbc="F F F"
Zr       0.00000000       0.00000000       0.00000000       0.00000000       0.00000000   -2241.70776367
Zr       0.00000000       0.00000000       0.82666667       0.00000000       0.00000000    2241.70776367
2
Properties=species:S:1:pos:R:3:forces:R:3 energy=82.00591217216643 pbc="F F F"
Zr       0.00000000       0.00000000       0.00000000       0.00000000       0.00000000     595.86712646
Zr       0.00000000       0.00000000       0.88545455       0.00000000       0.00000000    -595.86712646
2
Properties=species:S:1:pos:R:3:forces:R:3 energy=222.23302401549918 pbc="F F F"
Zr       0.00000000       0.00000000       0.00000000       0.00000000       0.00000000   -1391.41076660
Zr       0.00000000       0.00000000       0.94424242       0.00000000       0.00000000    1391.41076660
2
Properties=species:S:1:pos:R:3:forces:R:3 energy=170.33989661052289 pbc="F F F"
Zr       0.00000000       0.00000000       0.00000000       0.00000000       0.00000000    -705.49853516
Zr       0.00000000       0.00000000       1.00303030       0.00000000       0.00000000     705.49853516
2
Properties=species:S:1:pos:R:3:forces:R:3 energy=132.61170147236226 pbc="F F F"
Zr       0.00000000       0.00000000       0.00000000       0.00000000       0.00000000    -615.42742920
Zr       0.00000000       0.00000000       1.06181818       0.00000000       0.00000000     615.42742920
2
Properties=species:S:1:pos:R:3:forces:R:3 energy=95.90467029047043 pbc="F F F"
Zr       0.00000000       0.00000000       0.00000000       0.00000000       0.00000000    -626.56414795
Zr       0.00000000       0.00000000       1.12060606       0.00000000       0.00000000     626.56414795
2
Properties=species:S:1:pos:R:3:forces:R:3 energy=65.6205517252418 pbc="F F F"
Zr       0.00000000       0.00000000       0.00000000       0.00000000       0.00000000    -440.18270874
Zr       0.00000000       0.00000000       1.17939394       0.00000000       0.00000000     440.18270874
2
Properties=species:S:1:pos:R:3:forces:R:3 energy=41.78722740532643 pbc="F F F"
Zr       0.00000000       0.00000000       0.00000000       0.00000000       0.00000000    -368.18844604
Zr       0.00000000       0.00000000       1.23818182       0.00000000       0.00000000     368.18844604
2
Properties=species:S:1:pos:R:3:forces:R:3 energy=22.249412455468196 pbc="F F F"
Zr       0.00000000       0.00000000       0.00000000       0.00000000       0.00000000    -298.78485107
Zr       0.00000000       0.00000000       1.29696970       0.00000000       0.00000000     298.78485107
2
Properties=species:S:1:pos:R:3:forces:R:3 energy=6.369083502370071 pbc="F F F"
Zr       0.00000000       0.00000000       0.00000000       0.00000000       0.00000000    -242.55918884
Zr       0.00000000       0.00000000       1.35575758       0.00000000       0.00000000     242.55918884
2
Properties=species:S:1:pos:R:3:forces:R:3 energy=-6.287486707284869 pbc="F F F"
Zr       0.00000000       0.00000000       0.00000000       0.00000000       0.00000000    -188.63092041
Zr       0.00000000       0.00000000       1.41454545       0.00000000       0.00000000     188.63092041
2
Properties=species:S:1:pos:R:3:forces:R:3 energy=-16.12836777458886 pbc="F F F"
Zr       0.00000000       0.00000000       0.00000000       0.00000000       0.00000000    -150.59179688
Zr       0.00000000       0.00000000       1.47333333       0.00000000       0.00000000     150.59179688
2
Properties=species:S:1:pos:R:3:forces:R:3 energy=-24.13244534542493 pbc="F F F"
Zr       0.00000000       0.00000000       0.00000000       0.00000000       0.00000000    -119.20985413
Zr       0.00000000       0.00000000       1.53212121       0.00000000       0.00000000     119.20985413
2
Properties=species:S:1:pos:R:3:forces:R:3 energy=-30.287058422145456 pbc="F F F"
Zr       0.00000000       0.00000000       0.00000000       0.00000000       0.00000000     -95.61660767
Zr       0.00000000       0.00000000       1.59090909       0.00000000       0.00000000      95.61660767
2
Properties=species:S:1:pos:R:3:forces:R:3 energy=-35.36291698828595 pbc="F F F"
Zr       0.00000000       0.00000000       0.00000000       0.00000000       0.00000000     -71.81417084
Zr       0.00000000       0.00000000       1.64969697       0.00000000       0.00000000      71.81417084
2
Properties=species:S:1:pos:R:3:forces:R:3 energy=-38.582276737962246 pbc="F F F"
Zr       0.00000000       0.00000000       0.00000000       0.00000000       0.00000000     -40.41072083
Zr       0.00000000       0.00000000       1.70848485       0.00000000       0.00000000      40.41072083
2
Properties=species:S:1:pos:R:3:forces:R:3 energy=-40.4347921900152 pbc="F F F"
Zr       0.00000000       0.00000000       0.00000000       0.00000000       0.00000000     -24.24397659
Zr       0.00000000       0.00000000       1.76727273       0.00000000       0.00000000      24.24397659
2
Properties=species:S:1:pos:R:3:forces:R:3 energy=-41.516174083000244 pbc="F F F"
Zr       0.00000000       0.00000000       0.00000000       0.00000000       0.00000000     -12.79291439
Zr       0.00000000       0.00000000       1.82606061       0.00000000       0.00000000      12.79291439
2
Properties=species:S:1:pos:R:3:forces:R:3 energy=-41.96975966667323 pbc="F F F"
Zr       0.00000000       0.00000000       0.00000000       0.00000000       0.00000000      -3.02928829
Zr       0.00000000       0.00000000       1.88484848       0.00000000       0.00000000       3.02928829
2
Properties=species:S:1:pos:R:3:forces:R:3 energy=-41.92953251191302 pbc="F F F"
Zr       0.00000000       0.00000000       0.00000000       0.00000000       0.00000000       3.89512014
Zr       0.00000000       0.00000000       1.94363636       0.00000000       0.00000000      -3.89512014
2
Properties=species:S:1:pos:R:3:forces:R:3 energy=-41.56237036213382 pbc="F F F"
Zr       0.00000000       0.00000000       0.00000000       0.00000000       0.00000000       8.25749683
Zr       0.00000000       0.00000000       2.00242424       0.00000000       0.00000000      -8.25749683
2
Properties=species:S:1:pos:R:3:forces:R:3 energy=-40.9897446603788 pbc="F F F"
Zr       0.00000000       0.00000000       0.00000000       0.00000000       0.00000000      11.00460815
Zr       0.00000000       0.00000000       2.06121212       0.00000000       0.00000000     -11.00460815
2
Properties=species:S:1:pos:R:3:forces:R:3 energy=-40.293225062439696 pbc="F F F"
Zr       0.00000000       0.00000000       0.00000000       0.00000000       0.00000000      12.47645950
Zr       0.00000000       0.00000000       2.12000000       0.00000000       0.00000000     -12.47645950
2
Properties=species:S:1:pos:R:3:forces:R:3 energy=-39.54942226971842 pbc="F F F"
Zr       0.00000000       0.00000000       0.00000000       0.00000000       0.00000000      12.59249973
Zr       0.00000000       0.00000000       2.17878788       0.00000000       0.00000000     -12.59249973
2
Properties=species:S:1:pos:R:3:forces:R:3 energy=-38.840100664965306 pbc="F F F"
Zr       0.00000000       0.00000000       0.00000000       0.00000000       0.00000000      11.32327461
Zr       0.00000000       0.00000000       2.23757576       0.00000000       0.00000000     -11.32327461
2
Properties=species:S:1:pos:R:3:forces:R:3 energy=-38.2375414883494 pbc="F F F"
Zr       0.00000000       0.00000000       0.00000000       0.00000000       0.00000000       9.08163643
Zr       0.00000000       0.00000000       2.29636364       0.00000000       0.00000000      -9.08163643
2
Properties=species:S:1:pos:R:3:forces:R:3 energy=-37.77370489287135 pbc="F F F"
Zr       0.00000000       0.00000000       0.00000000       0.00000000       0.00000000       6.75807190
Zr       0.00000000       0.00000000       2.35515152       0.00000000       0.00000000      -6.75807190
2
Properties=species:S:1:pos:R:3:forces:R:3 energy=-37.43189498922908 pbc="F F F"
Zr       0.00000000       0.00000000       0.00000000       0.00000000       0.00000000       4.97277498
Zr       0.00000000       0.00000000       2.41393939       0.00000000       0.00000000      -4.97277498
2
Properties=species:S:1:pos:R:3:forces:R:3 energy=-37.17876924617421 pbc="F F F"
Zr       0.00000000       0.00000000       0.00000000       0.00000000       0.00000000       3.70822191
Zr       0.00000000       0.00000000       2.47272727       0.00000000       0.00000000      -3.70822191
2
Properties=species:S:1:pos:R:3:forces:R:3 energy=-36.98897017607379 pbc="F F F"
Zr       0.00000000       0.00000000       0.00000000       0.00000000       0.00000000       2.80404043
Zr       0.00000000       0.00000000       2.53151515       0.00000000       0.00000000      -2.80404043
2
Properties=species:S:1:pos:R:3:forces:R:3 energy=-36.84240989926985 pbc="F F F"
Zr       0.00000000       0.00000000       0.00000000       0.00000000       0.00000000       2.24021816
Zr       0.00000000       0.00000000       2.59030303       0.00000000       0.00000000      -2.24021816
2
Properties=species:S:1:pos:R:3:forces:R:3 energy=-36.718964391195364 pbc="F F F"
Zr       0.00000000       0.00000000       0.00000000       0.00000000       0.00000000       2.01076961
Zr       0.00000000       0.00000000       2.64909091       0.00000000       0.00000000      -2.01076961
2
Properties=species:S:1:pos:R:3:forces:R:3 energy=-36.60096924473261 pbc="F F F"
Zr       0.00000000       0.00000000       0.00000000       0.00000000       0.00000000       2.03613448
Zr       0.00000000       0.00000000       2.70787879       0.00000000       0.00000000      -2.03613448
2
Properties=species:S:1:pos:R:3:forces:R:3 energy=-36.4770507033274 pbc="F F F"
Zr       0.00000000       0.00000000       0.00000000       0.00000000       0.00000000       2.18960428
Zr       0.00000000       0.00000000       2.76666667       0.00000000       0.00000000      -2.18960428
2
Properties=species:S:1:pos:R:3:forces:R:3 energy=-36.34363414377079 pbc="F F F"
Zr       0.00000000       0.00000000       0.00000000       0.00000000       0.00000000       2.33835602
Zr       0.00000000       0.00000000       2.82545455       0.00000000       0.00000000      -2.33835602
2
Properties=species:S:1:pos:R:3:forces:R:3 energy=-36.20427101781481 pbc="F F F"
Zr       0.00000000       0.00000000       0.00000000       0.00000000       0.00000000       2.37933874
Zr       0.00000000       0.00000000       2.88424242       0.00000000       0.00000000      -2.37933874
2
Properties=species:S:1:pos:R:3:forces:R:3 energy=-36.06675385700501 pbc="F F F"
Zr       0.00000000       0.00000000       0.00000000       0.00000000       0.00000000       2.27661276
Zr       0.00000000       0.00000000       2.94303030       0.00000000       0.00000000      -2.27661276
2
Properties=species:S:1:pos:R:3:forces:R:3 energy=-35.938598897530014 pbc="F F F"
Zr       0.00000000       0.00000000       0.00000000       0.00000000       0.00000000       2.07357407
Zr       0.00000000       0.00000000       3.00181818       0.00000000       0.00000000      -2.07357407
2
Properties=species:S:1:pos:R:3:forces:R:3 energy=-35.82316420886539 pbc="F F F"
Zr       0.00000000       0.00000000       0.00000000       0.00000000       0.00000000       1.85918343
Zr       0.00000000       0.00000000       3.06060606       0.00000000       0.00000000      -1.85918343
2
Properties=species:S:1:pos:R:3:forces:R:3 energy=-35.71867545298221 pbc="F F F"
Zr       0.00000000       0.00000000       0.00000000       0.00000000       0.00000000       1.71054327
Zr       0.00000000       0.00000000       3.11939394       0.00000000       0.00000000      -1.71054327
2
Properties=species:S:1:pos:R:3:forces:R:3 energy=-35.62020074827974 pbc="F F F"
Zr       0.00000000       0.00000000       0.00000000       0.00000000       0.00000000       1.65435386
Zr       0.00000000       0.00000000       3.17818182       0.00000000       0.00000000      -1.65435386
2
Properties=species:S:1:pos:R:3:forces:R:3 energy=-35.52277451075578 pbc="F F F"
Zr       0.00000000       0.00000000       0.00000000       0.00000000       0.00000000       1.66852927
Zr       0.00000000       0.00000000       3.23696970       0.00000000       0.00000000      -1.66852927
2
Properties=species:S:1:pos:R:3:forces:R:3 energy=-35.42346964317262 pbc="F F F"
Zr       0.00000000       0.00000000       0.00000000       0.00000000       0.00000000       1.71122849
Zr       0.00000000       0.00000000       3.29575758       0.00000000       0.00000000      -1.71122849
2
Properties=species:S:1:pos:R:3:forces:R:3 energy=-35.32170183685369 pbc="F F F"
Zr       0.00000000       0.00000000       0.00000000       0.00000000       0.00000000       1.74793518
Zr       0.00000000       0.00000000       3.35454545       0.00000000       0.00000000      -1.74793518
2
Properties=species:S:1:pos:R:3:forces:R:3 energy=-35.21847993020926 pbc="F F F"
Zr       0.00000000       0.00000000       0.00000000       0.00000000       0.00000000       1.75804305
Zr       0.00000000       0.00000000       3.41333333       0.00000000       0.00000000      -1.75804305
2
Properties=species:S:1:pos:R:3:forces:R:3 energy=-35.115785040293765 pbc="F F F"
Zr       0.00000000       0.00000000       0.00000000       0.00000000       0.00000000       1.72810137
Zr       0.00000000       0.00000000       3.47212121       0.00000000       0.00000000      -1.72810137
2
Properties=species:S:1:pos:R:3:forces:R:3 energy=-35.016274239169185 pbc="F F F"
Zr       0.00000000       0.00000000       0.00000000       0.00000000       0.00000000       1.64862871
Zr       0.00000000       0.00000000       3.53090909       0.00000000       0.00000000      -1.64862871
2
Properties=species:S:1:pos:R:3:forces:R:3 energy=-34.92293649169813 pbc="F F F"
Zr       0.00000000       0.00000000       0.00000000       0.00000000       0.00000000       1.51912296
Zr       0.00000000       0.00000000       3.58969697       0.00000000       0.00000000      -1.51912296
2
Properties=species:S:1:pos:R:3:forces:R:3 energy=-34.83836609781695 pbc="F F F"
Zr       0.00000000       0.00000000       0.00000000       0.00000000       0.00000000       1.35419142
Zr       0.00000000       0.00000000       3.64848485       0.00000000       0.00000000      -1.35419142
2
Properties=species:S:1:pos:R:3:forces:R:3 energy=-34.76385624294981 pbc="F F F"
Zr       0.00000000       0.00000000       0.00000000       0.00000000       0.00000000       1.18227088
Zr       0.00000000       0.00000000       3.70727273       0.00000000       0.00000000      -1.18227088
2
Properties=species:S:1:pos:R:3:forces:R:3 energy=-34.698856486694645 pbc="F F F"
Zr       0.00000000       0.00000000       0.00000000       0.00000000       0.00000000       1.03565621
Zr       0.00000000       0.00000000       3.76606061       0.00000000       0.00000000      -1.03565621
2
Properties=species:S:1:pos:R:3:forces:R:3 energy=-34.64112119005533 pbc="F F F"
Zr       0.00000000       0.00000000       0.00000000       0.00000000       0.00000000       0.93792361
Zr       0.00000000       0.00000000       3.82484848       0.00000000       0.00000000      -0.93792361
2
Properties=species:S:1:pos:R:3:forces:R:3 energy=-34.58747327977819 pbc="F F F"
Zr       0.00000000       0.00000000       0.00000000       0.00000000       0.00000000       0.89618289
Zr       0.00000000       0.00000000       3.88363636       0.00000000       0.00000000      -0.89618289
2
Properties=species:S:1:pos:R:3:forces:R:3 energy=-34.534824026340075 pbc="F F F"
Zr       0.00000000       0.00000000       0.00000000       0.00000000       0.00000000       0.90148050
Zr       0.00000000       0.00000000       3.94242424       0.00000000       0.00000000      -0.90148050
2
Properties=species:S:1:pos:R:3:forces:R:3 energy=-34.48092300861224 pbc="F F F"
Zr       0.00000000       0.00000000       0.00000000       0.00000000       0.00000000       0.93526441
Zr       0.00000000       0.00000000       4.00121212       0.00000000       0.00000000      -0.93526441
2
Properties=species:S:1:pos:R:3:forces:R:3 energy=-34.424701835759755 pbc="F F F"
Zr       0.00000000       0.00000000       0.00000000       0.00000000       0.00000000       0.97726721
Zr       0.00000000       0.00000000       4.06000000       0.00000000       0.00000000      -0.97726721
2
Properties=species:S:1:pos:R:3:forces:R:3 energy=-34.36617922330506 pbc="F F F"
Zr       0.00000000       0.00000000       0.00000000       0.00000000       0.00000000       1.01132011
Zr       0.00000000       0.00000000       4.11878788       0.00000000       0.00000000      -1.01132011
2
Properties=species:S:1:pos:R:3:forces:R:3 energy=-34.30613682305588 pbc="F F F"
Zr       0.00000000       0.00000000       0.00000000       0.00000000       0.00000000       1.02804089
Zr       0.00000000       0.00000000       4.17757576       0.00000000       0.00000000      -1.02804089
2
Properties=species:S:1:pos:R:3:forces:R:3 energy=-34.24569949236444 pbc="F F F"
Zr       0.00000000       0.00000000       0.00000000       0.00000000       0.00000000       1.02494740
Zr       0.00000000       0.00000000       4.23636364       0.00000000       0.00000000      -1.02494740
2
Properties=species:S:1:pos:R:3:forces:R:3 energy=-34.18596160901868 pbc="F F F"
Zr       0.00000000       0.00000000       0.00000000       0.00000000       0.00000000       1.00491428
Zr       0.00000000       0.00000000       4.29515152       0.00000000       0.00000000      -1.00491428
2
Properties=species:S:1:pos:R:3:forces:R:3 energy=-34.12776197242541 pbc="F F F"
Zr       0.00000000       0.00000000       0.00000000       0.00000000       0.00000000       0.97378767
Zr       0.00000000       0.00000000       4.35393939       0.00000000       0.00000000      -0.97378767
2
Properties=species:S:1:pos:R:3:forces:R:3 energy=-34.071561707955205 pbc="F F F"
Zr       0.00000000       0.00000000       0.00000000       0.00000000       0.00000000       0.93782181
Zr       0.00000000       0.00000000       4.41272727       0.00000000       0.00000000      -0.93782181
2
Properties=species:S:1:pos:R:3:forces:R:3 energy=-34.017501569764775 pbc="F F F"
Zr       0.00000000       0.00000000       0.00000000       0.00000000       0.00000000       0.90153986
Zr       0.00000000       0.00000000       4.47151515       0.00000000       0.00000000      -0.90153986
2
Properties=species:S:1:pos:R:3:forces:R:3 energy=-33.96553536333439 pbc="F F F"
Zr       0.00000000       0.00000000       0.00000000       0.00000000       0.00000000       0.86648530
Zr       0.00000000       0.00000000       4.53030303       0.00000000       0.00000000      -0.86648530
2
Properties=species:S:1:pos:R:3:forces:R:3 energy=-33.915624561552754 pbc="F F F"
Zr       0.00000000       0.00000000       0.00000000       0.00000000       0.00000000       0.83121413
Zr       0.00000000       0.00000000       4.58909091       0.00000000       0.00000000      -0.83121413
2
Properties=species:S:1:pos:R:3:forces:R:3 energy=-33.867875586301174 pbc="F F F"
Zr       0.00000000       0.00000000       0.00000000       0.00000000       0.00000000       0.79243577
Zr       0.00000000       0.00000000       4.64787879       0.00000000       0.00000000      -0.79243577
2
Properties=species:S:1:pos:R:3:forces:R:3 energy=-33.822589475545776 pbc="F F F"
Zr       0.00000000       0.00000000       0.00000000       0.00000000       0.00000000       0.74686301
Zr       0.00000000       0.00000000       4.70666667       0.00000000       0.00000000      -0.74686301
2
Properties=species:S:1:pos:R:3:forces:R:3 energy=-33.780227525719525 pbc="F F F"
Zr       0.00000000       0.00000000       0.00000000       0.00000000       0.00000000       0.69296056
Zr       0.00000000       0.00000000       4.76545455       0.00000000       0.00000000      -0.69296056
2
Properties=species:S:1:pos:R:3:forces:R:3 energy=-33.7412548669596 pbc="F F F"
Zr       0.00000000       0.00000000       0.00000000       0.00000000       0.00000000       0.63192874
Zr       0.00000000       0.00000000       4.82424242       0.00000000       0.00000000      -0.63192874
2
Properties=species:S:1:pos:R:3:forces:R:3 energy=-33.70599554896077 pbc="F F F"
Zr       0.00000000       0.00000000       0.00000000       0.00000000       0.00000000       0.56763375
Zr       0.00000000       0.00000000       4.88303030       0.00000000       0.00000000      -0.56763375
2
Properties=species:S:1:pos:R:3:forces:R:3 energy=-33.67447230151553 pbc="F F F"
Zr       0.00000000       0.00000000       0.00000000       0.00000000       0.00000000       0.50553364
Zr       0.00000000       0.00000000       4.94181818       0.00000000       0.00000000      -0.50553364
2
Properties=species:S:1:pos:R:3:forces:R:3 energy=-33.64639892729429 pbc="F F F"
Zr       0.00000000       0.00000000       0.00000000       0.00000000       0.00000000       0.45126569
Zr       0.00000000       0.00000000       5.00060606       0.00000000       0.00000000      -0.45126569
2
Properties=species:S:1:pos:R:3:forces:R:3 energy=-33.6211764966516 pbc="F F F"
Zr       0.00000000       0.00000000       0.00000000       0.00000000       0.00000000       0.40904710
Zr       0.00000000       0.00000000       5.05939394       0.00000000       0.00000000      -0.40904710
2
Properties=species:S:1:pos:R:3:forces:R:3 energy=-33.59803065455292 pbc="F F F"
Zr       0.00000000       0.00000000       0.00000000       0.00000000       0.00000000       0.38064006
Zr       0.00000000       0.00000000       5.11818182       0.00000000       0.00000000      -0.38064006
2
Properties=species:S:1:pos:R:3:forces:R:3 energy=-33.576175684235324 pbc="F F F"
Zr       0.00000000       0.00000000       0.00000000       0.00000000       0.00000000       0.36476663
Zr       0.00000000       0.00000000       5.17696970       0.00000000       0.00000000      -0.36476663
2
Properties=species:S:1:pos:R:3:forces:R:3 energy=-33.55498235388713 pbc="F F F"
Zr       0.00000000       0.00000000       0.00000000       0.00000000       0.00000000       0.35721666
Zr       0.00000000       0.00000000       5.23575758       0.00000000       0.00000000      -0.35721666
2
Properties=species:S:1:pos:R:3:forces:R:3 energy=-33.53413430498061 pbc="F F F"
Zr       0.00000000       0.00000000       0.00000000       0.00000000       0.00000000       0.35178715
Zr       0.00000000       0.00000000       5.29454545       0.00000000       0.00000000      -0.35178715
2
Properties=species:S:1:pos:R:3:forces:R:3 energy=-33.513689114354754 pbc="F F F"
Zr       0.00000000       0.00000000       0.00000000       0.00000000       0.00000000       0.34297231
Zr       0.00000000       0.00000000       5.35333333       0.00000000       0.00000000      -0.34297231
2
Properties=species:S:1:pos:R:3:forces:R:3 energy=-33.493895176075185 pbc="F F F"
Zr       0.00000000       0.00000000       0.00000000       0.00000000       0.00000000       0.33004063
Zr       0.00000000       0.00000000       5.41212121       0.00000000       0.00000000      -0.33004063
2
Properties=species:S:1:pos:R:3:forces:R:3 energy=-33.47491703214369 pbc="F F F"
Zr       0.00000000       0.00000000       0.00000000       0.00000000       0.00000000       0.31508604
Zr       0.00000000       0.00000000       5.47090909       0.00000000       0.00000000      -0.31508604
2
Properties=species:S:1:pos:R:3:forces:R:3 energy=-33.456968912245095 pbc="F F F"
Zr       0.00000000       0.00000000       0.00000000       0.00000000       0.00000000       0.29360721
Zr       0.00000000       0.00000000       5.52969697       0.00000000       0.00000000      -0.29360721
2
Properties=species:S:1:pos:R:3:forces:R:3 energy=-33.44067329945109 pbc="F F F"
Zr       0.00000000       0.00000000       0.00000000       0.00000000       0.00000000       0.25839117
Zr       0.00000000       0.00000000       5.58848485       0.00000000       0.00000000      -0.25839117
2
Properties=species:S:1:pos:R:3:forces:R:3 energy=-33.426820596372984 pbc="F F F"
Zr       0.00000000       0.00000000       0.00000000       0.00000000       0.00000000       0.21220341
Zr       0.00000000       0.00000000       5.64727273       0.00000000       0.00000000      -0.21220341
2
Properties=species:S:1:pos:R:3:forces:R:3 energy=-33.41568629276722 pbc="F F F"
Zr       0.00000000       0.00000000       0.00000000       0.00000000       0.00000000       0.16792654
Zr       0.00000000       0.00000000       5.70606061       0.00000000       0.00000000      -0.16792654
2
Properties=species:S:1:pos:R:3:forces:R:3 energy=-33.40680590156451 pbc="F F F"
Zr       0.00000000       0.00000000       0.00000000       0.00000000       0.00000000       0.13565768
Zr       0.00000000       0.00000000       5.76484848       0.00000000       0.00000000      -0.13565768
2
Properties=species:S:1:pos:R:3:forces:R:3 energy=-33.39965013811115 pbc="F F F"
Zr       0.00000000       0.00000000       0.00000000       0.00000000       0.00000000       0.10666969
Zr       0.00000000       0.00000000       5.82363636       0.00000000       0.00000000      -0.10666969
2
Properties=species:S:1:pos:R:3:forces:R:3 energy=-33.39455570630176 pbc="F F F"
Zr       0.00000000       0.00000000       0.00000000       0.00000000       0.00000000       0.06533941
Zr       0.00000000       0.00000000       5.88242424       0.00000000       0.00000000      -0.06533941
2
Properties=species:S:1:pos:R:3:forces:R:3 energy=-33.39196998376904 pbc="F F F"
Zr       0.00000000       0.00000000       0.00000000       0.00000000       0.00000000       0.02462422
Zr       0.00000000       0.00000000       5.94121212       0.00000000       0.00000000      -0.02462422
2
Properties=species:S:1:pos:R:3:forces:R:3 energy=-33.39116545148214 pbc="F F F"
Zr       0.00000000       0.00000000       0.00000000       0.00000000       0.00000000       0.00819832
Zr       0.00000000       0.00000000       6.00000000       0.00000000       0.00000000      -0.00819832
