2
Properties=species:S:1:pos:R:3:forces:R:3 energy=5879923.474398108 pbc="F F F"
Ba       0.00000000       0.00000000       0.00000000       0.00000000       0.00000000 -1267511.37500000
Ba       0.00000000       0.00000000       0.10000000       0.00000000       0.00000000 1267511.37500000
2
Properties=species:S:1:pos:R:3:forces:R:3 energy=5838313.974398108 pbc="F F F"
Ba       0.00000000       0.00000000       0.00000000       0.00000000       0.00000000 -446306.06250000
Ba       0.00000000       0.00000000       0.15959596       0.00000000       0.00000000  446306.06250000
2
Properties=species:S:1:pos:R:3:forces:R:3 energy=5808495.474398108 pbc="F F F"
Ba       0.00000000       0.00000000       0.00000000       0.00000000       0.00000000 -647255.87500000
Ba       0.00000000       0.00000000       0.21919192       0.00000000       0.00000000  647255.87500000
2
Properties=species:S:1:pos:R:3:forces:R:3 energy=5751197.474398108 pbc="F F F"
Ba       0.00000000       0.00000000       0.00000000       0.00000000       0.00000000 -1357129.62500000
Ba       0.00000000       0.00000000       0.27878788       0.00000000       0.00000000 1357129.62500000
2
Properties=species:S:1:pos:R:3:forces:R:3 energy=5635788.474398108 pbc="F F F"
Ba       0.00000000       0.00000000       0.00000000       0.00000000       0.00000000 -2617584.75000000
Ba       0.00000000       0.00000000       0.33838384       0.00000000       0.00000000 2617584.75000000
2
Properties=species:S:1:pos:R:3:forces:R:3 energy=5426856.474398108 pbc="F F F"
Ba       0.00000000       0.00000000       0.00000000       0.00000000       0.00000000 -4501542.00000000
Ba       0.00000000       0.00000000       0.39797980       0.00000000       0.00000000 4501542.00000000
2
Properties=species:S:1:pos:R:3:forces:R:3 energy=5087211.974398108 pbc="F F F"
Ba       0.00000000       0.00000000       0.00000000       0.00000000       0.00000000 -6983999.00000000
Ba       0.00000000       0.00000000       0.45757576       0.00000000       0.00000000 6983999.00000000
2
Properties=species:S:1:pos:R:3:forces:R:3 energy=4586726.974398108 pbc="F F F"
Ba       0.00000000       0.00000000       0.00000000       0.00000000       0.00000000 -9843627.00000000
Ba       0.00000000       0.00000000       0.51717172       0.00000000       0.00000000 9843627.00000000
2
Properties=species:S:1:pos:R:3:forces:R:3 energy=3916015.7243981096 pbc="F F F"
Ba       0.00000000       0.00000000       0.00000000       0.00000000       0.00000000 -12590908.00000000
Ba       0.00000000       0.00000000       0.57676768       0.00000000       0.00000000 12590908.00000000
2
Properties=species:S:1:pos:R:3:forces:R:3 energy=3100540.4743981115 pbc="F F F"
Ba       0.00000000       0.00000000       0.00000000       0.00000000       0.00000000 -14583629.00000000
Ba       0.00000000       0.00000000       0.63636364       0.00000000       0.00000000 14583629.00000000
2
Properties=species:S:1:pos:R:3:forces:R:3 energy=2214974.2243981143 pbc="F F F"
Ba       0.00000000       0.00000000       0.00000000       0.00000000       0.00000000 -14805244.00000000
Ba       0.00000000       0.00000000       0.69595960       0.00000000       0.00000000 14805244.00000000
2
Properties=species:S:1:pos:R:3:forces:R:3 energy=1381017.5993981175 pbc="F F F"
Ba       0.00000000       0.00000000       0.00000000       0.00000000       0.00000000 -12870131.00000000
Ba       0.00000000       0.00000000       0.75555556       0.00000000       0.00000000 12870131.00000000
2
Properties=species:S:1:pos:R:3:forces:R:3 energy=712613.2868981239 pbc="F F F"
Ba       0.00000000       0.00000000       0.00000000       0.00000000       0.00000000 -9332075.00000000
Ba       0.00000000       0.00000000       0.81515152       0.00000000       0.00000000 9332075.00000000
2
Properties=species:S:1:pos:R:3:forces:R:3 energy=280176.8806481334 pbc="F F F"
Ba       0.00000000       0.00000000       0.00000000       0.00000000       0.00000000 -5215831.00000000
Ba       0.00000000       0.00000000       0.87474747       0.00000000       0.00000000 5215831.00000000
2
Properties=species:S:1:pos:R:3:forces:R:3 energy=72549.20096064925 pbc="F F F"
Ba       0.00000000       0.00000000       0.00000000       0.00000000       0.00000000 -1998141.37500000
Ba       0.00000000       0.00000000       0.93434343       0.00000000       0.00000000 1998141.37500000
2
Properties=species:S:1:pos:R:3:forces:R:3 energy=8806.277132541667 pbc="F F F"
Ba       0.00000000       0.00000000       0.00000000       0.00000000       0.00000000 -405998.21875000
Ba       0.00000000       0.00000000       0.99393939       0.00000000       0.00000000  405998.21875000
2
Properties=species:S:1:pos:R:3:forces:R:3 energy=46.274519497799595 pbc="F F F"
Ba       0.00000000       0.00000000       0.00000000       0.00000000       0.00000000      77.21316528
Ba       0.00000000       0.00000000       1.05353535       0.00000000       0.00000000     -77.21316528
2
Properties=species:S:1:pos:R:3:forces:R:3 energy=33.73162707500704 pbc="F F F"
Ba       0.00000000       0.00000000       0.00000000       0.00000000       0.00000000    -408.51593018
Ba       0.00000000       0.00000000       1.11313131       0.00000000       0.00000000     408.51593018
2
Properties=species:S:1:pos:R:3:forces:R:3 energy=17.69702781357342 pbc="F F F"
Ba       0.00000000       0.00000000       0.00000000       0.00000000       0.00000000    -155.07072449
Ba       0.00000000       0.00000000       1.17272727       0.00000000       0.00000000     155.07072449
2
Properties=species:S:1:pos:R:3:forces:R:3 energy=7.835299199213505 pbc="F F F"
Ba       0.00000000       0.00000000       0.00000000       0.00000000       0.00000000    -166.61862183
Ba       0.00000000       0.00000000       1.23232323       0.00000000       0.00000000     166.61862183
2
Properties=species:S:1:pos:R:3:forces:R:3 energy=-1.8096668565826886 pbc="F F F"
Ba       0.00000000       0.00000000       0.00000000       0.00000000       0.00000000    -154.14605713
Ba       0.00000000       0.00000000       1.29191919       0.00000000       0.00000000     154.14605713
2
Properties=species:S:1:pos:R:3:forces:R:3 energy=-10.110856187323268 pbc="F F F"
Ba       0.00000000       0.00000000       0.00000000       0.00000000       0.00000000    -121.29141235
Ba       0.00000000       0.00000000       1.35151515       0.00000000       0.00000000     121.29141235
2
Properties=species:S:1:pos:R:3:forces:R:3 energy=-16.163079278848077 pbc="F F F"
Ba       0.00000000       0.00000000       0.00000000       0.00000000       0.00000000     -83.53347778
Ba       0.00000000       0.00000000       1.41111111       0.00000000       0.00000000      83.53347778
2
Properties=species:S:1:pos:R:3:forces:R:3 energy=-20.424527049125864 pbc="F F F"
Ba       0.00000000       0.00000000       0.00000000       0.00000000       0.00000000     -62.48915863
Ba       0.00000000       0.00000000       1.47070707       0.00000000       0.00000000      62.48915863
2
Properties=species:S:1:pos:R:3:forces:R:3 energy=-23.860058491106585 pbc="F F F"
Ba       0.00000000       0.00000000       0.00000000       0.00000000       0.00000000     -54.03237534
Ba       0.00000000       0.00000000       1.53030303       0.00000000       0.00000000      54.03237534
2
Properties=species:S:1:pos:R:3:forces:R:3 energy=-26.957113717210987 pbc="F F F"
Ba       0.00000000       0.00000000       0.00000000       0.00000000       0.00000000     -50.42094421
Ba       0.00000000       0.00000000       1.58989899       0.00000000       0.00000000      50.42094421
2
Properties=species:S:1:pos:R:3:forces:R:3 energy=-29.911409579013583 pbc="F F F"
Ba       0.00000000       0.00000000       0.00000000       0.00000000       0.00000000     -48.88017654
Ba       0.00000000       0.00000000       1.64949495       0.00000000       0.00000000      48.88017654
2
Properties=species:S:1:pos:R:3:forces:R:3 energy=-32.774501694220184 pbc="F F F"
Ba       0.00000000       0.00000000       0.00000000       0.00000000       0.00000000     -46.90835190
Ba       0.00000000       0.00000000       1.70909091       0.00000000       0.00000000      46.90835190
2
Properties=species:S:1:pos:R:3:forces:R:3 energy=-35.45140410091673 pbc="F F F"
Ba       0.00000000       0.00000000       0.00000000       0.00000000       0.00000000     -42.47774887
Ba       0.00000000       0.00000000       1.76868687       0.00000000       0.00000000      42.47774887
2
Properties=species:S:1:pos:R:3:forces:R:3 energy=-37.80375199456182 pbc="F F F"
Ba       0.00000000       0.00000000       0.00000000       0.00000000       0.00000000     -36.38160706
Ba       0.00000000       0.00000000       1.82828283       0.00000000       0.00000000      36.38160706
2
Properties=species:S:1:pos:R:3:forces:R:3 energy=-39.78295756657971 pbc="F F F"
Ba       0.00000000       0.00000000       0.00000000       0.00000000       0.00000000     -29.96483994
Ba       0.00000000       0.00000000       1.88787879       0.00000000       0.00000000      29.96483994
2
Properties=species:S:1:pos:R:3:forces:R:3 energy=-41.37632168026967 pbc="F F F"
Ba       0.00000000       0.00000000       0.00000000       0.00000000       0.00000000     -23.68702316
Ba       0.00000000       0.00000000       1.94747475       0.00000000       0.00000000      23.68702316
2
Properties=species:S:1:pos:R:3:forces:R:3 energy=-42.64481843771853 pbc="F F F"
Ba       0.00000000       0.00000000       0.00000000       0.00000000       0.00000000     -19.27685356
Ba       0.00000000       0.00000000       2.00707071       0.00000000       0.00000000      19.27685356
2
Properties=species:S:1:pos:R:3:forces:R:3 energy=-43.71855189436421 pbc="F F F"
Ba       0.00000000       0.00000000       0.00000000       0.00000000       0.00000000     -17.07477570
Ba       0.00000000       0.00000000       2.06666667       0.00000000       0.00000000      17.07477570
2
Properties=species:S:1:pos:R:3:forces:R:3 energy=-44.708266510685974 pbc="F F F"
Ba       0.00000000       0.00000000       0.00000000       0.00000000       0.00000000     -16.29269028
Ba       0.00000000       0.00000000       2.12626263       0.00000000       0.00000000      16.29269028
2
Properties=species:S:1:pos:R:3:forces:R:3 energy=-45.669599628879936 pbc="F F F"
Ba       0.00000000       0.00000000       0.00000000       0.00000000       0.00000000     -15.97943211
Ba       0.00000000       0.00000000       2.18585859       0.00000000       0.00000000      15.97943211
2
Properties=species:S:1:pos:R:3:forces:R:3 energy=-46.60894847725362 pbc="F F F"
Ba       0.00000000       0.00000000       0.00000000       0.00000000       0.00000000     -15.48419476
Ba       0.00000000       0.00000000       2.24545455       0.00000000       0.00000000      15.48419476
2
Properties=species:S:1:pos:R:3:forces:R:3 energy=-47.50723572943905 pbc="F F F"
Ba       0.00000000       0.00000000       0.00000000       0.00000000       0.00000000     -14.59792519
Ba       0.00000000       0.00000000       2.30505051       0.00000000       0.00000000      14.59792519
2
Properties=species:S:1:pos:R:3:forces:R:3 energy=-48.34250778841736 pbc="F F F"
Ba       0.00000000       0.00000000       0.00000000       0.00000000       0.00000000     -13.39102936
Ba       0.00000000       0.00000000       2.36464646       0.00000000       0.00000000      13.39102936
2
Properties=species:S:1:pos:R:3:forces:R:3 energy=-49.09953254266433 pbc="F F F"
Ba       0.00000000       0.00000000       0.00000000       0.00000000       0.00000000     -11.99155235
Ba       0.00000000       0.00000000       2.42424242       0.00000000       0.00000000      11.99155235
2
Properties=species:S:1:pos:R:3:forces:R:3 energy=-49.77011217766182 pbc="F F F"
Ba       0.00000000       0.00000000       0.00000000       0.00000000       0.00000000     -10.50607395
Ba       0.00000000       0.00000000       2.48383838       0.00000000       0.00000000      10.50607395
2
Properties=species:S:1:pos:R:3:forces:R:3 energy=-50.351694630844825 pbc="F F F"
Ba       0.00000000       0.00000000       0.00000000       0.00000000       0.00000000      -9.01593399
Ba       0.00000000       0.00000000       2.54343434       0.00000000       0.00000000       9.01593399
2
Properties=species:S:1:pos:R:3:forces:R:3 energy=-50.845691318026866 pbc="F F F"
Ba       0.00000000       0.00000000       0.00000000       0.00000000       0.00000000      -7.57267570
Ba       0.00000000       0.00000000       2.60303030       0.00000000       0.00000000       7.57267570
2
Properties=species:S:1:pos:R:3:forces:R:3 energy=-51.255684209846045 pbc="F F F"
Ba       0.00000000       0.00000000       0.00000000       0.00000000       0.00000000      -6.19886303
Ba       0.00000000       0.00000000       2.66262626       0.00000000       0.00000000       6.19886303
2
Properties=species:S:1:pos:R:3:forces:R:3 energy=-51.58614791451674 pbc="F F F"
Ba       0.00000000       0.00000000       0.00000000       0.00000000       0.00000000      -4.90592146
Ba       0.00000000       0.00000000       2.72222222       0.00000000       0.00000000       4.90592146
2
Properties=species:S:1:pos:R:3:forces:R:3 energy=-51.84246495404161 pbc="F F F"
Ba       0.00000000       0.00000000       0.00000000       0.00000000       0.00000000      -3.71595407
Ba       0.00000000       0.00000000       2.78181818       0.00000000       0.00000000       3.71595407
2
Properties=species:S:1:pos:R:3:forces:R:3 energy=-52.031833639986154 pbc="F F F"
Ba       0.00000000       0.00000000       0.00000000       0.00000000       0.00000000      -2.66566730
Ba       0.00000000       0.00000000       2.84141414       0.00000000       0.00000000       2.66566730
2
Properties=species:S:1:pos:R:3:forces:R:3 energy=-52.16368389923926 pbc="F F F"
Ba       0.00000000       0.00000000       0.00000000       0.00000000       0.00000000      -1.79049003
Ba       0.00000000       0.00000000       2.90101010       0.00000000       0.00000000       1.79049003
2
Properties=species:S:1:pos:R:3:forces:R:3 energy=-52.24914322273169 pbc="F F F"
Ba       0.00000000       0.00000000       0.00000000       0.00000000       0.00000000      -1.11118495
Ba       0.00000000       0.00000000       2.96060606       0.00000000       0.00000000       1.11118495
2
Properties=species:S:1:pos:R:3:forces:R:3 energy=-52.30017834588001 pbc="F F F"
Ba       0.00000000       0.00000000       0.00000000       0.00000000       0.00000000      -0.63560295
Ba       0.00000000       0.00000000       3.02020202       0.00000000       0.00000000       0.63560295
2
Properties=species:S:1:pos:R:3:forces:R:3 energy=-52.32891628157459 pbc="F F F"
Ba       0.00000000       0.00000000       0.00000000       0.00000000       0.00000000      -0.36142173
Ba       0.00000000       0.00000000       3.07979798       0.00000000       0.00000000       0.36142173
2
Properties=species:S:1:pos:R:3:forces:R:3 energy=-52.34691188563326 pbc="F F F"
Ba       0.00000000       0.00000000       0.00000000       0.00000000       0.00000000      -0.27039099
Ba       0.00000000       0.00000000       3.13939394       0.00000000       0.00000000       0.27039099
2
Properties=species:S:1:pos:R:3:forces:R:3 energy=-52.36402254961839 pbc="F F F"
Ba       0.00000000       0.00000000       0.00000000       0.00000000       0.00000000      -0.32379723
Ba       0.00000000       0.00000000       3.19898990       0.00000000       0.00000000       0.32379723
2
Properties=species:S:1:pos:R:3:forces:R:3 energy=-52.38731723701669 pbc="F F F"
Ba       0.00000000       0.00000000       0.00000000       0.00000000       0.00000000      -0.46844503
Ba       0.00000000       0.00000000       3.25858586       0.00000000       0.00000000       0.46844503
2
Properties=species:S:1:pos:R:3:forces:R:3 energy=-52.420550070855654 pbc="F F F"
Ba       0.00000000       0.00000000       0.00000000       0.00000000       0.00000000      -0.64815426
Ba       0.00000000       0.00000000       3.31818182       0.00000000       0.00000000       0.64815426
2
Properties=species:S:1:pos:R:3:forces:R:3 energy=-52.46426337171144 pbc="F F F"
Ba       0.00000000       0.00000000       0.00000000       0.00000000       0.00000000      -0.81257993
Ba       0.00000000       0.00000000       3.37777778       0.00000000       0.00000000       0.81257993
2
Properties=species:S:1:pos:R:3:forces:R:3 energy=-52.516317952897815 pbc="F F F"
Ba       0.00000000       0.00000000       0.00000000       0.00000000       0.00000000      -0.92299080
Ba       0.00000000       0.00000000       3.43737374       0.00000000       0.00000000       0.92299080
2
Properties=species:S:1:pos:R:3:forces:R:3 energy=-52.5727553054047 pbc="F F F"
Ba       0.00000000       0.00000000       0.00000000       0.00000000       0.00000000      -0.95748883
Ba       0.00000000       0.00000000       3.49696970       0.00000000       0.00000000       0.95748883
2
Properties=species:S:1:pos:R:3:forces:R:3 energy=-52.6288847723636 pbc="F F F"
Ba       0.00000000       0.00000000       0.00000000       0.00000000       0.00000000      -0.91411477
Ba       0.00000000       0.00000000       3.55656566       0.00000000       0.00000000       0.91411477
2
Properties=species:S:1:pos:R:3:forces:R:3 energy=-52.680462382369555 pbc="F F F"
Ba       0.00000000       0.00000000       0.00000000       0.00000000       0.00000000      -0.80824345
Ba       0.00000000       0.00000000       3.61616162       0.00000000       0.00000000       0.80824345
2
Properties=species:S:1:pos:R:3:forces:R:3 energy=-52.72446901762905 pbc="F F F"
Ba       0.00000000       0.00000000       0.00000000       0.00000000       0.00000000      -0.66441453
Ba       0.00000000       0.00000000       3.67575758       0.00000000       0.00000000       0.66441453
2
Properties=species:S:1:pos:R:3:forces:R:3 energy=-52.75938122261976 pbc="F F F"
Ba       0.00000000       0.00000000       0.00000000       0.00000000       0.00000000      -0.50666749
Ba       0.00000000       0.00000000       3.73535354       0.00000000       0.00000000       0.50666749
2
Properties=species:S:1:pos:R:3:forces:R:3 energy=-52.78492316323715 pbc="F F F"
Ba       0.00000000       0.00000000       0.00000000       0.00000000       0.00000000      -0.35183337
Ba       0.00000000       0.00000000       3.79494949       0.00000000       0.00000000       0.35183337
2
Properties=species:S:1:pos:R:3:forces:R:3 energy=-52.80153619063738 pbc="F F F"
Ba       0.00000000       0.00000000       0.00000000       0.00000000       0.00000000      -0.20778376
Ba       0.00000000       0.00000000       3.85454545       0.00000000       0.00000000       0.20778376
2
Properties=species:S:1:pos:R:3:forces:R:3 energy=-52.80993222704975 pbc="F F F"
Ba       0.00000000       0.00000000       0.00000000       0.00000000       0.00000000      -0.07596620
Ba       0.00000000       0.00000000       3.91414141       0.00000000       0.00000000       0.07596620
2
Properties=species:S:1:pos:R:3:forces:R:3 energy=-52.81082266884508 pbc="F F F"
Ba       0.00000000       0.00000000       0.00000000       0.00000000       0.00000000       0.04410461
Ba       0.00000000       0.00000000       3.97373737       0.00000000       0.00000000      -0.04410461
2
Properties=species:S:1:pos:R:3:forces:R:3 energy=-52.804933376059914 pbc="F F F"
Ba       0.00000000       0.00000000       0.00000000       0.00000000       0.00000000       0.15113851
Ba       0.00000000       0.00000000       4.03333333       0.00000000       0.00000000      -0.15113851
2
Properties=species:S:1:pos:R:3:forces:R:3 energy=-52.793145813027486 pbc="F F F"
Ba       0.00000000       0.00000000       0.00000000       0.00000000       0.00000000       0.24111409
Ba       0.00000000       0.00000000       4.09292929       0.00000000       0.00000000      -0.24111409
2
Properties=species:S:1:pos:R:3:forces:R:3 energy=-52.77663113615786 pbc="F F F"
Ba       0.00000000       0.00000000       0.00000000       0.00000000       0.00000000       0.30922723
Ba       0.00000000       0.00000000       4.15252525       0.00000000       0.00000000      -0.30922723
2
Properties=species:S:1:pos:R:3:forces:R:3 energy=-52.75677519563185 pbc="F F F"
Ba       0.00000000       0.00000000       0.00000000       0.00000000       0.00000000       0.35306370
Ba       0.00000000       0.00000000       4.21212121       0.00000000       0.00000000      -0.35306370
2
Properties=species:S:1:pos:R:3:forces:R:3 energy=-52.73499002751673 pbc="F F F"
Ba       0.00000000       0.00000000       0.00000000       0.00000000       0.00000000       0.37475249
Ba       0.00000000       0.00000000       4.27171717       0.00000000       0.00000000      -0.37475249
2
Properties=species:S:1:pos:R:3:forces:R:3 energy=-52.712419152083775 pbc="F F F"
Ba       0.00000000       0.00000000       0.00000000       0.00000000       0.00000000       0.38088512
Ba       0.00000000       0.00000000       4.33131313       0.00000000       0.00000000      -0.38088512
2
Properties=species:S:1:pos:R:3:forces:R:3 energy=-52.68972266081841 pbc="F F F"
Ba       0.00000000       0.00000000       0.00000000       0.00000000       0.00000000       0.38051322
Ba       0.00000000       0.00000000       4.39090909       0.00000000       0.00000000      -0.38051322
2
Properties=species:S:1:pos:R:3:forces:R:3 energy=-52.66701642201843 pbc="F F F"
Ba       0.00000000       0.00000000       0.00000000       0.00000000       0.00000000       0.38247743
Ba       0.00000000       0.00000000       4.45050505       0.00000000       0.00000000      -0.38247743
2
Properties=species:S:1:pos:R:3:forces:R:3 energy=-52.643954889699806 pbc="F F F"
Ba       0.00000000       0.00000000       0.00000000       0.00000000       0.00000000       0.39330816
Ba       0.00000000       0.00000000       4.51010101       0.00000000       0.00000000      -0.39330816
2
Properties=species:S:1:pos:R:3:forces:R:3 energy=-52.61989349656552 pbc="F F F"
Ba       0.00000000       0.00000000       0.00000000       0.00000000       0.00000000       0.41618991
Ba       0.00000000       0.00000000       4.56969697       0.00000000       0.00000000      -0.41618991
2
Properties=species:S:1:pos:R:3:forces:R:3 energy=-52.59410954851214 pbc="F F F"
Ba       0.00000000       0.00000000       0.00000000       0.00000000       0.00000000       0.45090953
Ba       0.00000000       0.00000000       4.62929293       0.00000000       0.00000000      -0.45090953
2
Properties=species:S:1:pos:R:3:forces:R:3 energy=-52.565974895931895 pbc="F F F"
Ba       0.00000000       0.00000000       0.00000000       0.00000000       0.00000000       0.49439660
Ba       0.00000000       0.00000000       4.68888889       0.00000000       0.00000000      -0.49439660
2
Properties=species:S:1:pos:R:3:forces:R:3 energy=-52.53510468028463 pbc="F F F"
Ba       0.00000000       0.00000000       0.00000000       0.00000000       0.00000000       0.54171085
Ba       0.00000000       0.00000000       4.74848485       0.00000000       0.00000000      -0.54171085
2
Properties=species:S:1:pos:R:3:forces:R:3 energy=-52.50143798565842 pbc="F F F"
Ba       0.00000000       0.00000000       0.00000000       0.00000000       0.00000000       0.58769828
Ba       0.00000000       0.00000000       4.80808081       0.00000000       0.00000000      -0.58769828
2
Properties=species:S:1:pos:R:3:forces:R:3 energy=-52.46514811508901 pbc="F F F"
Ba       0.00000000       0.00000000       0.00000000       0.00000000       0.00000000       0.62922603
Ba       0.00000000       0.00000000       4.86767677       0.00000000       0.00000000      -0.62922603
2
Properties=species:S:1:pos:R:3:forces:R:3 energy=-52.42651278439647 pbc="F F F"
Ba       0.00000000       0.00000000       0.00000000       0.00000000       0.00000000       0.66705799
Ba       0.00000000       0.00000000       4.92727273       0.00000000       0.00000000      -0.66705799
2
Properties=species:S:1:pos:R:3:forces:R:3 energy=-52.3856148062647 pbc="F F F"
Ba       0.00000000       0.00000000       0.00000000       0.00000000       0.00000000       0.70615935
Ba       0.00000000       0.00000000       4.98686869       0.00000000       0.00000000      -0.70615935
2
Properties=species:S:1:pos:R:3:forces:R:3 energy=-52.34217354919844 pbc="F F F"
Ba       0.00000000       0.00000000       0.00000000       0.00000000       0.00000000       0.75395429
Ba       0.00000000       0.00000000       5.04646465       0.00000000       0.00000000      -0.75395429
2
Properties=species:S:1:pos:R:3:forces:R:3 energy=-52.295460597949145 pbc="F F F"
Ba       0.00000000       0.00000000       0.00000000       0.00000000       0.00000000       0.81629872
Ba       0.00000000       0.00000000       5.10606061       0.00000000       0.00000000      -0.81629872
2
Properties=species:S:1:pos:R:3:forces:R:3 energy=-52.24460288669031 pbc="F F F"
Ba       0.00000000       0.00000000       0.00000000       0.00000000       0.00000000       0.89159107
Ba       0.00000000       0.00000000       5.16565657       0.00000000       0.00000000      -0.89159107
2
Properties=species:S:1:pos:R:3:forces:R:3 energy=-52.18922957245987 pbc="F F F"
Ba       0.00000000       0.00000000       0.00000000       0.00000000       0.00000000       0.96415943
Ba       0.00000000       0.00000000       5.22525253       0.00000000       0.00000000      -0.96415943
2
Properties=species:S:1:pos:R:3:forces:R:3 energy=-52.1303611700697 pbc="F F F"
Ba       0.00000000       0.00000000       0.00000000       0.00000000       0.00000000       1.00289929
Ba       0.00000000       0.00000000       5.28484848       0.00000000       0.00000000      -1.00289929
2
Properties=species:S:1:pos:R:3:forces:R:3 energy=-52.07089119232152 pbc="F F F"
Ba       0.00000000       0.00000000       0.00000000       0.00000000       0.00000000       0.98356676
Ba       0.00000000       0.00000000       5.34444444       0.00000000       0.00000000      -0.98356676
2
Properties=species:S:1:pos:R:3:forces:R:3 energy=-52.01349670010502 pbc="F F F"
Ba       0.00000000       0.00000000       0.00000000       0.00000000       0.00000000       0.94887322
Ba       0.00000000       0.00000000       5.40404040       0.00000000       0.00000000      -0.94887322
2
Properties=species:S:1:pos:R:3:forces:R:3 energy=-51.95588599739954 pbc="F F F"
Ba       0.00000000       0.00000000       0.00000000       0.00000000       0.00000000       1.00377405
Ba       0.00000000       0.00000000       5.46363636       0.00000000       0.00000000      -1.00377405
2
Properties=species:S:1:pos:R:3:forces:R:3 energy=-51.89278665558955 pbc="F F F"
Ba       0.00000000       0.00000000       0.00000000       0.00000000       0.00000000       1.10667861
Ba       0.00000000       0.00000000       5.52323232       0.00000000       0.00000000      -1.10667861
2
Properties=species:S:1:pos:R:3:forces:R:3 energy=-51.82671490119369 pbc="F F F"
Ba       0.00000000       0.00000000       0.00000000       0.00000000       0.00000000       1.08281088
Ba       0.00000000       0.00000000       5.58282828       0.00000000       0.00000000      -1.08281088
2
Properties=species:S:1:pos:R:3:forces:R:3 energy=-51.76569849502286 pbc="F F F"
Ba       0.00000000       0.00000000       0.00000000       0.00000000       0.00000000       0.96636045
Ba       0.00000000       0.00000000       5.64242424       0.00000000       0.00000000      -0.96636045
2
Properties=species:S:1:pos:R:3:forces:R:3 energy=-51.70891843975569 pbc="F F F"
Ba       0.00000000       0.00000000       0.00000000       0.00000000       0.00000000       0.97472566
Ba       0.00000000       0.00000000       5.70202020       0.00000000       0.00000000      -0.97472566
2
Properties=species:S:1:pos:R:3:forces:R:3 energy=-51.64593856631413 pbc="F F F"
Ba       0.00000000       0.00000000       0.00000000       0.00000000       0.00000000       1.14680588
Ba       0.00000000       0.00000000       5.76161616       0.00000000       0.00000000      -1.14680588
2
Properties=species:S:1:pos:R:3:forces:R:3 energy=-51.5763932688147 pbc="F F F"
Ba       0.00000000       0.00000000       0.00000000       0.00000000       0.00000000       1.11727822
Ba       0.00000000       0.00000000       5.82121212       0.00000000       0.00000000      -1.11727822
2
Properties=species:S:1:pos:R:3:forces:R:3 energy=-51.52116083522291 pbc="F F F"
Ba       0.00000000       0.00000000       0.00000000       0.00000000       0.00000000       0.69516569
Ba       0.00000000       0.00000000       5.88080808       0.00000000       0.00000000      -0.69516569
2
Properties=species:S:1:pos:R:3:forces:R:3 energy=-51.49467643478796 pbc="F F F"
Ba       0.00000000       0.00000000       0.00000000       0.00000000       0.00000000       0.20725192
Ba       0.00000000       0.00000000       5.94040404       0.00000000       0.00000000      -0.20725192
2
Properties=species:S:1:pos:R:3:forces:R:3 energy=-51.49037908598827 pbc="F F F"
Ba       0.00000000       0.00000000       0.00000000       0.00000000       0.00000000       0.00546636
Ba       0.00000000       0.00000000       6.00000000       0.00000000       0.00000000      -0.00546636
