2
Properties=species:S:1:pos:R:3:forces:R:3 energy=-1868.0977104965577 pbc="F F F"
Be       0.00000000       0.00000000       0.00000000       0.00000000       0.00000000  -10655.04492188
Be       0.00000000       0.00000000       0.10000000       0.00000000       0.00000000   10655.04492188
2
Properties=species:S:1:pos:R:3:forces:R:3 energy=-2129.9203423324952 pbc="F F F"
Be       0.00000000       0.00000000       0.00000000       0.00000000       0.00000000     315.82751465
Be       0.00000000       0.00000000       0.15959596       0.00000000       0.00000000    -315.82751465
2
Properties=species:S:1:pos:R:3:forces:R:3 energy=-1870.6202935043702 pbc="F F F"
Be       0.00000000       0.00000000       0.00000000       0.00000000       0.00000000    8451.03613281
Be       0.00000000       0.00000000       0.21919192       0.00000000       0.00000000   -8451.03613281
2
Properties=species:S:1:pos:R:3:forces:R:3 energy=-1151.2424858871827 pbc="F F F"
Be       0.00000000       0.00000000       0.00000000       0.00000000       0.00000000   14801.87500000
Be       0.00000000       0.00000000       0.27878788       0.00000000       0.00000000  -14801.87500000
2
Properties=species:S:1:pos:R:3:forces:R:3 energy=-306.26113212662517 pbc="F F F"
Be       0.00000000       0.00000000       0.00000000       0.00000000       0.00000000   11451.18945312
Be       0.00000000       0.00000000       0.33838384       0.00000000       0.00000000  -11451.18945312
2
Properties=species:S:1:pos:R:3:forces:R:3 energy=59.3900061806228 pbc="F F F"
Be       0.00000000       0.00000000       0.00000000       0.00000000       0.00000000    1136.45275879
Be       0.00000000       0.00000000       0.39797980       0.00000000       0.00000000   -1136.45275879
2
Properties=species:S:1:pos:R:3:forces:R:3 energy=50.74275505464023 pbc="F F F"
Be       0.00000000       0.00000000       0.00000000       0.00000000       0.00000000    -549.54656982
Be       0.00000000       0.00000000       0.45757576       0.00000000       0.00000000     549.54656982
2
Properties=species:S:1:pos:R:3:forces:R:3 energy=55.04582894324056 pbc="F F F"
Be       0.00000000       0.00000000       0.00000000       0.00000000       0.00000000    -461.76901245
Be       0.00000000       0.00000000       0.51717172       0.00000000       0.00000000     461.76901245
2
Properties=species:S:1:pos:R:3:forces:R:3 energy=40.49266733244223 pbc="F F F"
Be       0.00000000       0.00000000       0.00000000       0.00000000       0.00000000     -62.55664825
Be       0.00000000       0.00000000       0.57676768       0.00000000       0.00000000      62.55664825
2
Properties=species:S:1:pos:R:3:forces:R:3 energy=30.193148763076262 pbc="F F F"
Be       0.00000000       0.00000000       0.00000000       0.00000000       0.00000000    -269.62667847
Be       0.00000000       0.00000000       0.63636364       0.00000000       0.00000000     269.62667847
2
Properties=species:S:1:pos:R:3:forces:R:3 energy=13.60480612416873 pbc="F F F"
Be       0.00000000       0.00000000       0.00000000       0.00000000       0.00000000    -263.21185303
Be       0.00000000       0.00000000       0.69595960       0.00000000       0.00000000     263.21185303
2
Properties=species:S:1:pos:R:3:forces:R:3 energy=2.9325487427414947 pbc="F F F"
Be       0.00000000       0.00000000       0.00000000       0.00000000       0.00000000     -62.46629715
Be       0.00000000       0.00000000       0.75555556       0.00000000       0.00000000      62.46629715
2
Properties=species:S:1:pos:R:3:forces:R:3 energy=3.547146125862623 pbc="F F F"
Be       0.00000000       0.00000000       0.00000000       0.00000000       0.00000000      50.47343445
Be       0.00000000       0.00000000       0.81515152       0.00000000       0.00000000     -50.47343445
2
Properties=species:S:1:pos:R:3:forces:R:3 energy=6.387635125236692 pbc="F F F"
Be       0.00000000       0.00000000       0.00000000       0.00000000       0.00000000      32.31684875
Be       0.00000000       0.00000000       0.87474747       0.00000000       0.00000000     -32.31684875
2
Properties=species:S:1:pos:R:3:forces:R:3 energy=7.084062597225457 pbc="F F F"
Be       0.00000000       0.00000000       0.00000000       0.00000000       0.00000000      -3.47341871
Be       0.00000000       0.00000000       0.93434343       0.00000000       0.00000000       3.47341871
2
Properties=species:S:1:pos:R:3:forces:R:3 energy=6.806267932712059 pbc="F F F"
Be       0.00000000       0.00000000       0.00000000       0.00000000       0.00000000      -2.58450079
Be       0.00000000       0.00000000       0.99393939       0.00000000       0.00000000       2.58450079
2
Properties=species:S:1:pos:R:3:forces:R:3 energy=6.685401867663406 pbc="F F F"
Be       0.00000000       0.00000000       0.00000000       0.00000000       0.00000000      -3.45601153
Be       0.00000000       0.00000000       1.05353535       0.00000000       0.00000000       3.45601153
2
Properties=species:S:1:pos:R:3:forces:R:3 energy=6.267386701236294 pbc="F F F"
Be       0.00000000       0.00000000       0.00000000       0.00000000       0.00000000     -10.63452911
Be       0.00000000       0.00000000       1.11313131       0.00000000       0.00000000      10.63452911
2
Properties=species:S:1:pos:R:3:forces:R:3 energy=5.464452464070861 pbc="F F F"
Be       0.00000000       0.00000000       0.00000000       0.00000000       0.00000000     -15.77547455
Be       0.00000000       0.00000000       1.17272727       0.00000000       0.00000000      15.77547455
2
Properties=species:S:1:pos:R:3:forces:R:3 energy=4.440268290854167 pbc="F F F"
Be       0.00000000       0.00000000       0.00000000       0.00000000       0.00000000     -18.25850677
Be       0.00000000       0.00000000       1.23232323       0.00000000       0.00000000      18.25850677
2
Properties=species:S:1:pos:R:3:forces:R:3 energy=3.3236222013135532 pbc="F F F"
Be       0.00000000       0.00000000       0.00000000       0.00000000       0.00000000     -18.92121315
Be       0.00000000       0.00000000       1.29191919       0.00000000       0.00000000      18.92121315
2
Properties=species:S:1:pos:R:3:forces:R:3 energy=2.2184837995179407 pbc="F F F"
Be       0.00000000       0.00000000       0.00000000       0.00000000       0.00000000     -17.92311478
Be       0.00000000       0.00000000       1.35151515       0.00000000       0.00000000      17.92311478
2
Properties=species:S:1:pos:R:3:forces:R:3 energy=1.2110060299156795 pbc="F F F"
Be       0.00000000       0.00000000       0.00000000       0.00000000       0.00000000     -15.71590137
Be       0.00000000       0.00000000       1.41111111       0.00000000       0.00000000      15.71590137
2
Properties=species:S:1:pos:R:3:forces:R:3 energy=0.3651801155638487 pbc="F F F"
Be       0.00000000       0.00000000       0.00000000       0.00000000       0.00000000     -12.51241493
Be       0.00000000       0.00000000       1.47070707       0.00000000       0.00000000      12.51241493
2
Properties=species:S:1:pos:R:3:forces:R:3 energy=-0.2681184348354957 pbc="F F F"
Be       0.00000000       0.00000000       0.00000000       0.00000000       0.00000000      -8.73285198
Be       0.00000000       0.00000000       1.53030303       0.00000000       0.00000000       8.73285198
2
Properties=species:S:1:pos:R:3:forces:R:3 energy=-0.6909129558021659 pbc="F F F"
Be       0.00000000       0.00000000       0.00000000       0.00000000       0.00000000      -5.71427870
Be       0.00000000       0.00000000       1.58989899       0.00000000       0.00000000       5.71427870
2
Properties=species:S:1:pos:R:3:forces:R:3 energy=-0.987594967993399 pbc="F F F"
Be       0.00000000       0.00000000       0.00000000       0.00000000       0.00000000      -4.55625439
Be       0.00000000       0.00000000       1.64949495       0.00000000       0.00000000       4.55625439
2
Properties=species:S:1:pos:R:3:forces:R:3 energy=-1.2595167269881562 pbc="F F F"
Be       0.00000000       0.00000000       0.00000000       0.00000000       0.00000000      -4.65550423
Be       0.00000000       0.00000000       1.70909091       0.00000000       0.00000000       4.65550423
2
Properties=species:S:1:pos:R:3:forces:R:3 energy=-1.5392819898617007 pbc="F F F"
Be       0.00000000       0.00000000       0.00000000       0.00000000       0.00000000      -4.62821245
Be       0.00000000       0.00000000       1.76868687       0.00000000       0.00000000       4.62821245
2
Properties=species:S:1:pos:R:3:forces:R:3 energy=-1.7960975284778375 pbc="F F F"
Be       0.00000000       0.00000000       0.00000000       0.00000000       0.00000000      -3.87219238
Be       0.00000000       0.00000000       1.82828283       0.00000000       0.00000000       3.87219238
2
Properties=species:S:1:pos:R:3:forces:R:3 energy=-1.9906619171261848 pbc="F F F"
Be       0.00000000       0.00000000       0.00000000       0.00000000       0.00000000      -2.60972857
Be       0.00000000       0.00000000       1.88787879       0.00000000       0.00000000       2.60972857
2
Properties=species:S:1:pos:R:3:forces:R:3 energy=-2.1056167450870173 pbc="F F F"
Be       0.00000000       0.00000000       0.00000000       0.00000000       0.00000000      -1.26411796
Be       0.00000000       0.00000000       1.94747475       0.00000000       0.00000000       1.26411796
2
Properties=species:S:1:pos:R:3:forces:R:3 energy=-2.1456412430086735 pbc="F F F"
Be       0.00000000       0.00000000       0.00000000       0.00000000       0.00000000      -0.13021471
Be       0.00000000       0.00000000       2.00707071       0.00000000       0.00000000       0.13021471
2
Properties=species:S:1:pos:R:3:forces:R:3 energy=-2.128263193965632 pbc="F F F"
Be       0.00000000       0.00000000       0.00000000       0.00000000       0.00000000       0.64860243
Be       0.00000000       0.00000000       2.06666667       0.00000000       0.00000000      -0.64860243
2
Properties=species:S:1:pos:R:3:forces:R:3 energy=-2.0760548821510287 pbc="F F F"
Be       0.00000000       0.00000000       0.00000000       0.00000000       0.00000000       1.04191864
Be       0.00000000       0.00000000       2.12626263       0.00000000       0.00000000      -1.04191864
2
Properties=species:S:1:pos:R:3:forces:R:3 energy=-2.0105081144281787 pbc="F F F"
Be       0.00000000       0.00000000       0.00000000       0.00000000       0.00000000       1.11368477
Be       0.00000000       0.00000000       2.18585859       0.00000000       0.00000000      -1.11368477
2
Properties=species:S:1:pos:R:3:forces:R:3 energy=-1.9471821729637908 pbc="F F F"
Be       0.00000000       0.00000000       0.00000000       0.00000000       0.00000000       0.99075979
Be       0.00000000       0.00000000       2.24545455       0.00000000       0.00000000      -0.99075979
2
Properties=species:S:1:pos:R:3:forces:R:3 energy=-1.8936550185200052 pbc="F F F"
Be       0.00000000       0.00000000       0.00000000       0.00000000       0.00000000       0.80378360
Be       0.00000000       0.00000000       2.30505051       0.00000000       0.00000000      -0.80378360
2
Properties=species:S:1:pos:R:3:forces:R:3 energy=-1.8509368702063431 pbc="F F F"
Be       0.00000000       0.00000000       0.00000000       0.00000000       0.00000000       0.63695896
Be       0.00000000       0.00000000       2.36464646       0.00000000       0.00000000      -0.63695896
2
Properties=species:S:1:pos:R:3:forces:R:3 energy=-1.8167664036451054 pbc="F F F"
Be       0.00000000       0.00000000       0.00000000       0.00000000       0.00000000       0.51778501
Be       0.00000000       0.00000000       2.42424242       0.00000000       0.00000000      -0.51778501
2
Properties=species:S:1:pos:R:3:forces:R:3 energy=-1.7883602557298854 pbc="F F F"
Be       0.00000000       0.00000000       0.00000000       0.00000000       0.00000000       0.44191882
Be       0.00000000       0.00000000       2.48383838       0.00000000       0.00000000      -0.44191882
2
Properties=species:S:1:pos:R:3:forces:R:3 energy=-1.7634284801764282 pbc="F F F"
Be       0.00000000       0.00000000       0.00000000       0.00000000       0.00000000       0.39941871
Be       0.00000000       0.00000000       2.54343434       0.00000000       0.00000000      -0.39941871
2
Properties=species:S:1:pos:R:3:forces:R:3 energy=-1.7403372215349187 pbc="F F F"
Be       0.00000000       0.00000000       0.00000000       0.00000000       0.00000000       0.37774649
Be       0.00000000       0.00000000       2.60303030       0.00000000       0.00000000      -0.37774649
2
Properties=species:S:1:pos:R:3:forces:R:3 energy=-1.7182649110364978 pbc="F F F"
Be       0.00000000       0.00000000       0.00000000       0.00000000       0.00000000       0.36333397
Be       0.00000000       0.00000000       2.66262626       0.00000000       0.00000000      -0.36333397
2
Properties=species:S:1:pos:R:3:forces:R:3 energy=-1.6970538316827506 pbc="F F F"
Be       0.00000000       0.00000000       0.00000000       0.00000000       0.00000000       0.34793469
Be       0.00000000       0.00000000       2.72222222       0.00000000       0.00000000      -0.34793469
2
Properties=species:S:1:pos:R:3:forces:R:3 energy=-1.6768866879777764 pbc="F F F"
Be       0.00000000       0.00000000       0.00000000       0.00000000       0.00000000       0.32796222
Be       0.00000000       0.00000000       2.78181818       0.00000000       0.00000000      -0.32796222
2
Properties=species:S:1:pos:R:3:forces:R:3 energy=-1.6580726069991192 pbc="F F F"
Be       0.00000000       0.00000000       0.00000000       0.00000000       0.00000000       0.30253118
Be       0.00000000       0.00000000       2.84141414       0.00000000       0.00000000      -0.30253118
2
Properties=species:S:1:pos:R:3:forces:R:3 energy=-1.6409141376602088 pbc="F F F"
Be       0.00000000       0.00000000       0.00000000       0.00000000       0.00000000       0.27278098
Be       0.00000000       0.00000000       2.90101010       0.00000000       0.00000000      -0.27278098
2
Properties=species:S:1:pos:R:3:forces:R:3 energy=-1.6255915023645118 pbc="F F F"
Be       0.00000000       0.00000000       0.00000000       0.00000000       0.00000000       0.24145219
Be       0.00000000       0.00000000       2.96060606       0.00000000       0.00000000      -0.24145219
2
Properties=species:S:1:pos:R:3:forces:R:3 energy=-1.6120929759503937 pbc="F F F"
Be       0.00000000       0.00000000       0.00000000       0.00000000       0.00000000       0.21222571
Be       0.00000000       0.00000000       3.02020202       0.00000000       0.00000000      -0.21222571
2
Properties=species:S:1:pos:R:3:forces:R:3 energy=-1.6001798619676593 pbc="F F F"
Be       0.00000000       0.00000000       0.00000000       0.00000000       0.00000000       0.18883418
Be       0.00000000       0.00000000       3.07979798       0.00000000       0.00000000      -0.18883418
2
Properties=species:S:1:pos:R:3:forces:R:3 energy=-1.5894105561394976 pbc="F F F"
Be       0.00000000       0.00000000       0.00000000       0.00000000       0.00000000       0.17419864
Be       0.00000000       0.00000000       3.13939394       0.00000000       0.00000000      -0.17419864
2
Properties=species:S:1:pos:R:3:forces:R:3 energy=-1.5792105528219769 pbc="F F F"
Be       0.00000000       0.00000000       0.00000000       0.00000000       0.00000000       0.16988792
Be       0.00000000       0.00000000       3.19898990       0.00000000       0.00000000      -0.16988792
2
Properties=species:S:1:pos:R:3:forces:R:3 energy=-1.5689531527010434 pbc="F F F"
Be       0.00000000       0.00000000       0.00000000       0.00000000       0.00000000       0.17601860
Be       0.00000000       0.00000000       3.25858586       0.00000000       0.00000000      -0.17601860
2
Properties=species:S:1:pos:R:3:forces:R:3 energy=-1.5580444811108005 pbc="F F F"
Be       0.00000000       0.00000000       0.00000000       0.00000000       0.00000000       0.19146127
Be       0.00000000       0.00000000       3.31818182       0.00000000       0.00000000      -0.19146127
2
Properties=species:S:1:pos:R:3:forces:R:3 energy=-1.5459879029835473 pbc="F F F"
Be       0.00000000       0.00000000       0.00000000       0.00000000       0.00000000       0.21416581
Be       0.00000000       0.00000000       3.37777778       0.00000000       0.00000000      -0.21416581
2
Properties=species:S:1:pos:R:3:forces:R:3 energy=-1.5324266102444992 pbc="F F F"
Be       0.00000000       0.00000000       0.00000000       0.00000000       0.00000000       0.24147967
Be       0.00000000       0.00000000       3.43737374       0.00000000       0.00000000      -0.24147967
2
Properties=species:S:1:pos:R:3:forces:R:3 energy=-1.5171722838943877 pbc="F F F"
Be       0.00000000       0.00000000       0.00000000       0.00000000       0.00000000       0.27045804
Be       0.00000000       0.00000000       3.49696970       0.00000000       0.00000000      -0.27045804
2
Properties=species:S:1:pos:R:3:forces:R:3 energy=-1.5002153491761834 pbc="F F F"
Be       0.00000000       0.00000000       0.00000000       0.00000000       0.00000000       0.29818171
Be       0.00000000       0.00000000       3.55656566       0.00000000       0.00000000      -0.29818171
2
Properties=species:S:1:pos:R:3:forces:R:3 energy=-1.4817081112124215 pbc="F F F"
Be       0.00000000       0.00000000       0.00000000       0.00000000       0.00000000       0.32208234
Be       0.00000000       0.00000000       3.61616162       0.00000000       0.00000000      -0.32208234
2
Properties=species:S:1:pos:R:3:forces:R:3 energy=-1.461940750756446 pbc="F F F"
Be       0.00000000       0.00000000       0.00000000       0.00000000       0.00000000       0.34021765
Be       0.00000000       0.00000000       3.67575758       0.00000000       0.00000000      -0.34021765
2
Properties=species:S:1:pos:R:3:forces:R:3 energy=-1.4412948246499284 pbc="F F F"
Be       0.00000000       0.00000000       0.00000000       0.00000000       0.00000000       0.35144353
Be       0.00000000       0.00000000       3.73535354       0.00000000       0.00000000      -0.35144353
2
Properties=species:S:1:pos:R:3:forces:R:3 energy=-1.4201953373528247 pbc="F F F"
Be       0.00000000       0.00000000       0.00000000       0.00000000       0.00000000       0.35545364
Be       0.00000000       0.00000000       3.79494949       0.00000000       0.00000000      -0.35545364
2
Properties=species:S:1:pos:R:3:forces:R:3 energy=-1.3990625799744365 pbc="F F F"
Be       0.00000000       0.00000000       0.00000000       0.00000000       0.00000000       0.35267672
Be       0.00000000       0.00000000       3.85454545       0.00000000       0.00000000      -0.35267672
2
Properties=species:S:1:pos:R:3:forces:R:3 energy=-1.3782745750114302 pbc="F F F"
Be       0.00000000       0.00000000       0.00000000       0.00000000       0.00000000       0.34409177
Be       0.00000000       0.00000000       3.91414141       0.00000000       0.00000000      -0.34409177
2
Properties=species:S:1:pos:R:3:forces:R:3 energy=-1.35813967205048 pbc="F F F"
Be       0.00000000       0.00000000       0.00000000       0.00000000       0.00000000       0.33097544
Be       0.00000000       0.00000000       3.97373737       0.00000000       0.00000000      -0.33097544
2
Properties=species:S:1:pos:R:3:forces:R:3 energy=-1.3388882573869338 pbc="F F F"
Be       0.00000000       0.00000000       0.00000000       0.00000000       0.00000000       0.31466538
Be       0.00000000       0.00000000       4.03333333       0.00000000       0.00000000      -0.31466538
2
Properties=species:S:1:pos:R:3:forces:R:3 energy=-1.32067345027362 pbc="F F F"
Be       0.00000000       0.00000000       0.00000000       0.00000000       0.00000000       0.29636902
Be       0.00000000       0.00000000       4.09292929       0.00000000       0.00000000      -0.29636902
2
Properties=species:S:1:pos:R:3:forces:R:3 energy=-1.3035831125488206 pbc="F F F"
Be       0.00000000       0.00000000       0.00000000       0.00000000       0.00000000       0.27707294
Be       0.00000000       0.00000000       4.15252525       0.00000000       0.00000000      -0.27707294
2
Properties=species:S:1:pos:R:3:forces:R:3 energy=-1.2876533513801722 pbc="F F F"
Be       0.00000000       0.00000000       0.00000000       0.00000000       0.00000000       0.25754091
Be       0.00000000       0.00000000       4.21212121       0.00000000       0.00000000      -0.25754091
2
Properties=species:S:1:pos:R:3:forces:R:3 energy=-1.272879359390459 pbc="F F F"
Be       0.00000000       0.00000000       0.00000000       0.00000000       0.00000000       0.23836088
Be       0.00000000       0.00000000       4.27171717       0.00000000       0.00000000      -0.23836088
2
Properties=species:S:1:pos:R:3:forces:R:3 energy=-1.2592259597200257 pbc="F F F"
Be       0.00000000       0.00000000       0.00000000       0.00000000       0.00000000       0.22000702
Be       0.00000000       0.00000000       4.33131313       0.00000000       0.00000000      -0.22000702
2
Properties=species:S:1:pos:R:3:forces:R:3 energy=-1.246632501151208 pbc="F F F"
Be       0.00000000       0.00000000       0.00000000       0.00000000       0.00000000       0.20284732
Be       0.00000000       0.00000000       4.39090909       0.00000000       0.00000000      -0.20284732
2
Properties=species:S:1:pos:R:3:forces:R:3 energy=-1.235019358766411 pbc="F F F"
Be       0.00000000       0.00000000       0.00000000       0.00000000       0.00000000       0.18712820
Be       0.00000000       0.00000000       4.45050505       0.00000000       0.00000000      -0.18712820
2
Properties=species:S:1:pos:R:3:forces:R:3 energy=-1.2242978794202553 pbc="F F F"
Be       0.00000000       0.00000000       0.00000000       0.00000000       0.00000000       0.17293878
Be       0.00000000       0.00000000       4.51010101       0.00000000       0.00000000      -0.17293878
2
Properties=species:S:1:pos:R:3:forces:R:3 energy=-1.214377732325797 pbc="F F F"
Be       0.00000000       0.00000000       0.00000000       0.00000000       0.00000000       0.16018502
Be       0.00000000       0.00000000       4.56969697       0.00000000       0.00000000      -0.16018502
2
Properties=species:S:1:pos:R:3:forces:R:3 energy=-1.2051817321881197 pbc="F F F"
Be       0.00000000       0.00000000       0.00000000       0.00000000       0.00000000       0.14859380
Be       0.00000000       0.00000000       4.62929293       0.00000000       0.00000000      -0.14859380
2
Properties=species:S:1:pos:R:3:forces:R:3 energy=-1.1966518349308155 pbc="F F F"
Be       0.00000000       0.00000000       0.00000000       0.00000000       0.00000000       0.13775568
Be       0.00000000       0.00000000       4.68888889       0.00000000       0.00000000      -0.13775568
2
Properties=species:S:1:pos:R:3:forces:R:3 energy=-1.1887567805537582 pbc="F F F"
Be       0.00000000       0.00000000       0.00000000       0.00000000       0.00000000       0.12720752
Be       0.00000000       0.00000000       4.74848485       0.00000000       0.00000000      -0.12720752
2
Properties=species:S:1:pos:R:3:forces:R:3 energy=-1.18149167294075 pbc="F F F"
Be       0.00000000       0.00000000       0.00000000       0.00000000       0.00000000       0.11657038
Be       0.00000000       0.00000000       4.80808081       0.00000000       0.00000000      -0.11657038
2
Properties=species:S:1:pos:R:3:forces:R:3 energy=-1.1748672953729702 pbc="F F F"
Be       0.00000000       0.00000000       0.00000000       0.00000000       0.00000000       0.10570402
Be       0.00000000       0.00000000       4.86767677       0.00000000       0.00000000      -0.10570402
2
Properties=species:S:1:pos:R:3:forces:R:3 energy=-1.16889300499586 pbc="F F F"
Be       0.00000000       0.00000000       0.00000000       0.00000000       0.00000000       0.09481887
Be       0.00000000       0.00000000       4.92727273       0.00000000       0.00000000      -0.09481887
2
Properties=species:S:1:pos:R:3:forces:R:3 energy=-1.1635545638510438 pbc="F F F"
Be       0.00000000       0.00000000       0.00000000       0.00000000       0.00000000       0.08448884
Be       0.00000000       0.00000000       4.98686869       0.00000000       0.00000000      -0.08448884
2
Properties=species:S:1:pos:R:3:forces:R:3 energy=-1.1587960119367187 pbc="F F F"
Be       0.00000000       0.00000000       0.00000000       0.00000000       0.00000000       0.07552424
Be       0.00000000       0.00000000       5.04646465       0.00000000       0.00000000      -0.07552424
2
Properties=species:S:1:pos:R:3:forces:R:3 energy=-1.1545097546216423 pbc="F F F"
Be       0.00000000       0.00000000       0.00000000       0.00000000       0.00000000       0.06873634
Be       0.00000000       0.00000000       5.10606061       0.00000000       0.00000000      -0.06873634
2
Properties=species:S:1:pos:R:3:forces:R:3 energy=-1.1505475584101725 pbc="F F F"
Be       0.00000000       0.00000000       0.00000000       0.00000000       0.00000000       0.06470396
Be       0.00000000       0.00000000       5.16565657       0.00000000       0.00000000      -0.06470396
2
Properties=species:S:1:pos:R:3:forces:R:3 energy=-1.1467390069993482 pbc="F F F"
Be       0.00000000       0.00000000       0.00000000       0.00000000       0.00000000       0.06358360
Be       0.00000000       0.00000000       5.22525253       0.00000000       0.00000000      -0.06358360
2
Properties=species:S:1:pos:R:3:forces:R:3 energy=-1.1429183308926143 pbc="F F F"
Be       0.00000000       0.00000000       0.00000000       0.00000000       0.00000000       0.06499475
Be       0.00000000       0.00000000       5.28484848       0.00000000       0.00000000      -0.06499475
2
Properties=species:S:1:pos:R:3:forces:R:3 energy=-1.138962454962079 pbc="F F F"
Be       0.00000000       0.00000000       0.00000000       0.00000000       0.00000000       0.06786375
Be       0.00000000       0.00000000       5.34444444       0.00000000       0.00000000      -0.06786375
2
Properties=species:S:1:pos:R:3:forces:R:3 energy=-1.134841051698946 pbc="F F F"
Be       0.00000000       0.00000000       0.00000000       0.00000000       0.00000000       0.07009508
Be       0.00000000       0.00000000       5.40404040       0.00000000       0.00000000      -0.07009508
2
Properties=species:S:1:pos:R:3:forces:R:3 energy=-1.1306809502638495 pbc="F F F"
Be       0.00000000       0.00000000       0.00000000       0.00000000       0.00000000       0.06863663
Be       0.00000000       0.00000000       5.46363636       0.00000000       0.00000000      -0.06863663
2
Properties=species:S:1:pos:R:3:forces:R:3 energy=-1.1267611150455161 pbc="F F F"
Be       0.00000000       0.00000000       0.00000000       0.00000000       0.00000000       0.06237010
Be       0.00000000       0.00000000       5.52323232       0.00000000       0.00000000      -0.06237010
2
Properties=species:S:1:pos:R:3:forces:R:3 energy=-1.1232808101230982 pbc="F F F"
Be       0.00000000       0.00000000       0.00000000       0.00000000       0.00000000       0.05434750
Be       0.00000000       0.00000000       5.58282828       0.00000000       0.00000000      -0.05434750
2
Properties=species:S:1:pos:R:3:forces:R:3 energy=-1.1202929553336485 pbc="F F F"
Be       0.00000000       0.00000000       0.00000000       0.00000000       0.00000000       0.04578006
Be       0.00000000       0.00000000       5.64242424       0.00000000       0.00000000      -0.04578006
2
Properties=species:S:1:pos:R:3:forces:R:3 energy=-1.1178500641810862 pbc="F F F"
Be       0.00000000       0.00000000       0.00000000       0.00000000       0.00000000       0.03587709
Be       0.00000000       0.00000000       5.70202020       0.00000000       0.00000000      -0.03587709
2
Properties=species:S:1:pos:R:3:forces:R:3 energy=-1.1160403634589744 pbc="F F F"
Be       0.00000000       0.00000000       0.00000000       0.00000000       0.00000000       0.02493592
Be       0.00000000       0.00000000       5.76161616       0.00000000       0.00000000      -0.02493592
2
Properties=species:S:1:pos:R:3:forces:R:3 energy=-1.1148414129544628 pbc="F F F"
Be       0.00000000       0.00000000       0.00000000       0.00000000       0.00000000       0.01577715
Be       0.00000000       0.00000000       5.82121212       0.00000000       0.00000000      -0.01577715
2
Properties=species:S:1:pos:R:3:forces:R:3 energy=-1.1141062878621 pbc="F F F"
Be       0.00000000       0.00000000       0.00000000       0.00000000       0.00000000       0.00929866
Be       0.00000000       0.00000000       5.88080808       0.00000000       0.00000000      -0.00929866
2
Properties=species:S:1:pos:R:3:forces:R:3 energy=-1.1136954290098093 pbc="F F F"
Be       0.00000000       0.00000000       0.00000000       0.00000000       0.00000000       0.00476264
Be       0.00000000       0.00000000       5.94040404       0.00000000       0.00000000      -0.00476264
2
Properties=species:S:1:pos:R:3:forces:R:3 energy=-1.1134826116388996 pbc="F F F"
Be       0.00000000       0.00000000       0.00000000       0.00000000       0.00000000       0.00294757
Be       0.00000000       0.00000000       6.00000000       0.00000000       0.00000000      -0.00294757
