2
Properties=species:S:1:pos:R:3:forces:R:3 energy=84934.2569584088 pbc="F F F"
Br       0.00000000       0.00000000       0.00000000       0.00000000       0.00000000 -557022.93750000
Br       0.00000000       0.00000000       0.10000000       0.00000000       0.00000000  557022.93750000
2
Properties=species:S:1:pos:R:3:forces:R:3 energy=67940.2178959088 pbc="F F F"
Br       0.00000000       0.00000000       0.00000000       0.00000000       0.00000000 -138909.84375000
Br       0.00000000       0.00000000       0.15959596       0.00000000       0.00000000  138909.84375000
2
Properties=species:S:1:pos:R:3:forces:R:3 energy=62127.66320840881 pbc="F F F"
Br       0.00000000       0.00000000       0.00000000       0.00000000       0.00000000  -78170.38281250
Br       0.00000000       0.00000000       0.21919192       0.00000000       0.00000000   78170.38281250
2
Properties=species:S:1:pos:R:3:forces:R:3 energy=57085.00305215881 pbc="F F F"
Br       0.00000000       0.00000000       0.00000000       0.00000000       0.00000000  -99193.80468750
Br       0.00000000       0.00000000       0.27878788       0.00000000       0.00000000   99193.80468750
2
Properties=species:S:1:pos:R:3:forces:R:3 energy=49628.81945840881 pbc="F F F"
Br       0.00000000       0.00000000       0.00000000       0.00000000       0.00000000 -154436.14062500
Br       0.00000000       0.00000000       0.33838384       0.00000000       0.00000000  154436.14062500
2
Properties=species:S:1:pos:R:3:forces:R:3 energy=38608.6085209104 pbc="F F F"
Br       0.00000000       0.00000000       0.00000000       0.00000000       0.00000000 -212568.40625000
Br       0.00000000       0.00000000       0.39797980       0.00000000       0.00000000  212568.40625000
2
Properties=species:S:1:pos:R:3:forces:R:3 energy=25039.872192786977 pbc="F F F"
Br       0.00000000       0.00000000       0.00000000       0.00000000       0.00000000 -232344.46875000
Br       0.00000000       0.00000000       0.45757576       0.00000000       0.00000000  232344.46875000
2
Properties=species:S:1:pos:R:3:forces:R:3 energy=13035.052856852646 pbc="F F F"
Br       0.00000000       0.00000000       0.00000000       0.00000000       0.00000000 -156029.50000000
Br       0.00000000       0.00000000       0.51717172       0.00000000       0.00000000  156029.50000000
2
Properties=species:S:1:pos:R:3:forces:R:3 energy=5956.42541545194 pbc="F F F"
Br       0.00000000       0.00000000       0.00000000       0.00000000       0.00000000  -80938.81250000
Br       0.00000000       0.00000000       0.57676768       0.00000000       0.00000000   80938.81250000
2
Properties=species:S:1:pos:R:3:forces:R:3 energy=2482.168335383319 pbc="F F F"
Br       0.00000000       0.00000000       0.00000000       0.00000000       0.00000000  -22319.28710938
Br       0.00000000       0.00000000       0.63636364       0.00000000       0.00000000   22319.28710938
2
Properties=species:S:1:pos:R:3:forces:R:3 energy=1361.3863529764913 pbc="F F F"
Br       0.00000000       0.00000000       0.00000000       0.00000000       0.00000000  -12061.34570312
Br       0.00000000       0.00000000       0.69595960       0.00000000       0.00000000   12061.34570312
2
Properties=species:S:1:pos:R:3:forces:R:3 energy=859.6854252658748 pbc="F F F"
Br       0.00000000       0.00000000       0.00000000       0.00000000       0.00000000   -7338.25341797
Br       0.00000000       0.00000000       0.75555556       0.00000000       0.00000000    7338.25341797
2
Properties=species:S:1:pos:R:3:forces:R:3 energy=460.3868413155539 pbc="F F F"
Br       0.00000000       0.00000000       0.00000000       0.00000000       0.00000000   -5543.56347656
Br       0.00000000       0.00000000       0.81515152       0.00000000       0.00000000    5543.56347656
2
Properties=species:S:1:pos:R:3:forces:R:3 energy=234.7877813060614 pbc="F F F"
Br       0.00000000       0.00000000       0.00000000       0.00000000       0.00000000     -46.24226379
Br       0.00000000       0.00000000       0.87474747       0.00000000       0.00000000      46.24226379
2
Properties=species:S:1:pos:R:3:forces:R:3 energy=229.7612310835767 pbc="F F F"
Br       0.00000000       0.00000000       0.00000000       0.00000000       0.00000000    -369.45455933
Br       0.00000000       0.00000000       0.93434343       0.00000000       0.00000000     369.45455933
2
Properties=species:S:1:pos:R:3:forces:R:3 energy=198.50021433449214 pbc="F F F"
Br       0.00000000       0.00000000       0.00000000       0.00000000       0.00000000    -643.88494873
Br       0.00000000       0.00000000       0.99393939       0.00000000       0.00000000     643.88494873
2
Properties=species:S:1:pos:R:3:forces:R:3 energy=156.9906014280554 pbc="F F F"
Br       0.00000000       0.00000000       0.00000000       0.00000000       0.00000000    -718.74389648
Br       0.00000000       0.00000000       1.05353535       0.00000000       0.00000000     718.74389648
2
Properties=species:S:1:pos:R:3:forces:R:3 energy=115.10538584300829 pbc="F F F"
Br       0.00000000       0.00000000       0.00000000       0.00000000       0.00000000    -665.06530762
Br       0.00000000       0.00000000       1.11313131       0.00000000       0.00000000     665.06530762
2
Properties=species:S:1:pos:R:3:forces:R:3 energy=79.17985659111102 pbc="F F F"
Br       0.00000000       0.00000000       0.00000000       0.00000000       0.00000000    -536.46069336
Br       0.00000000       0.00000000       1.17272727       0.00000000       0.00000000     536.46069336
2
Properties=species:S:1:pos:R:3:forces:R:3 energy=51.22234498465497 pbc="F F F"
Br       0.00000000       0.00000000       0.00000000       0.00000000       0.00000000    -404.28176880
Br       0.00000000       0.00000000       1.23232323       0.00000000       0.00000000     404.28176880
2
Properties=species:S:1:pos:R:3:forces:R:3 energy=30.42551613878495 pbc="F F F"
Br       0.00000000       0.00000000       0.00000000       0.00000000       0.00000000    -299.32009888
Br       0.00000000       0.00000000       1.29191919       0.00000000       0.00000000     299.32009888
2
Properties=species:S:1:pos:R:3:forces:R:3 energy=15.06536341809195 pbc="F F F"
Br       0.00000000       0.00000000       0.00000000       0.00000000       0.00000000    -218.54858398
Br       0.00000000       0.00000000       1.35151515       0.00000000       0.00000000     218.54858398
2
Properties=species:S:1:pos:R:3:forces:R:3 energy=4.083277833585799 pbc="F F F"
Br       0.00000000       0.00000000       0.00000000       0.00000000       0.00000000    -153.23075867
Br       0.00000000       0.00000000       1.41111111       0.00000000       0.00000000     153.23075867
2
Properties=species:S:1:pos:R:3:forces:R:3 energy=-3.649995886566596 pbc="F F F"
Br       0.00000000       0.00000000       0.00000000       0.00000000       0.00000000    -110.00479126
Br       0.00000000       0.00000000       1.47070707       0.00000000       0.00000000     110.00479126
2
Properties=species:S:1:pos:R:3:forces:R:3 energy=-9.371018534596086 pbc="F F F"
Br       0.00000000       0.00000000       0.00000000       0.00000000       0.00000000     -83.88671875
Br       0.00000000       0.00000000       1.53030303       0.00000000       0.00000000      83.88671875
2
Properties=species:S:1:pos:R:3:forces:R:3 energy=-13.786372152181197 pbc="F F F"
Br       0.00000000       0.00000000       0.00000000       0.00000000       0.00000000     -64.96977997
Br       0.00000000       0.00000000       1.58989899       0.00000000       0.00000000      64.96977997
2
Properties=species:S:1:pos:R:3:forces:R:3 energy=-17.175745538827975 pbc="F F F"
Br       0.00000000       0.00000000       0.00000000       0.00000000       0.00000000     -49.22991562
Br       0.00000000       0.00000000       1.64949495       0.00000000       0.00000000      49.22991562
2
Properties=species:S:1:pos:R:3:forces:R:3 energy=-19.710570190837828 pbc="F F F"
Br       0.00000000       0.00000000       0.00000000       0.00000000       0.00000000     -36.33747864
Br       0.00000000       0.00000000       1.70909091       0.00000000       0.00000000      36.33747864
2
Properties=species:S:1:pos:R:3:forces:R:3 energy=-21.567889043988778 pbc="F F F"
Br       0.00000000       0.00000000       0.00000000       0.00000000       0.00000000     -26.49512482
Br       0.00000000       0.00000000       1.76868687       0.00000000       0.00000000      26.49512482
2
Properties=species:S:1:pos:R:3:forces:R:3 energy=-22.923508078080744 pbc="F F F"
Br       0.00000000       0.00000000       0.00000000       0.00000000       0.00000000     -19.40340233
Br       0.00000000       0.00000000       1.82828283       0.00000000       0.00000000      19.40340233
2
Properties=species:S:1:pos:R:3:forces:R:3 energy=-23.921145962702955 pbc="F F F"
Br       0.00000000       0.00000000       0.00000000       0.00000000       0.00000000     -14.35345840
Br       0.00000000       0.00000000       1.88787879       0.00000000       0.00000000      14.35345840
2
Properties=species:S:1:pos:R:3:forces:R:3 energy=-24.66093081228686 pbc="F F F"
Br       0.00000000       0.00000000       0.00000000       0.00000000       0.00000000     -10.65137672
Br       0.00000000       0.00000000       1.94747475       0.00000000       0.00000000      10.65137672
2
Properties=species:S:1:pos:R:3:forces:R:3 energy=-25.207935565694314 pbc="F F F"
Br       0.00000000       0.00000000       0.00000000       0.00000000       0.00000000      -7.82273340
Br       0.00000000       0.00000000       2.00707071       0.00000000       0.00000000       7.82273340
2
Properties=species:S:1:pos:R:3:forces:R:3 energy=-25.604762707342875 pbc="F F F"
Br       0.00000000       0.00000000       0.00000000       0.00000000       0.00000000      -5.57209682
Br       0.00000000       0.00000000       2.06666667       0.00000000       0.00000000       5.57209682
2
Properties=species:S:1:pos:R:3:forces:R:3 energy=-25.879572222365574 pbc="F F F"
Br       0.00000000       0.00000000       0.00000000       0.00000000       0.00000000      -3.70099545
Br       0.00000000       0.00000000       2.12626263       0.00000000       0.00000000       3.70099545
2
Properties=species:S:1:pos:R:3:forces:R:3 energy=-26.050987394705015 pbc="F F F"
Br       0.00000000       0.00000000       0.00000000       0.00000000       0.00000000      -2.08961606
Br       0.00000000       0.00000000       2.18585859       0.00000000       0.00000000       2.08961606
2
Properties=species:S:1:pos:R:3:forces:R:3 energy=-26.13316636318074 pbc="F F F"
Br       0.00000000       0.00000000       0.00000000       0.00000000       0.00000000      -0.70862502
Br       0.00000000       0.00000000       2.24545455       0.00000000       0.00000000       0.70862502
2
Properties=species:S:1:pos:R:3:forces:R:3 energy=-26.140831841807618 pbc="F F F"
Br       0.00000000       0.00000000       0.00000000       0.00000000       0.00000000       0.40097696
Br       0.00000000       0.00000000       2.30505051       0.00000000       0.00000000      -0.40097696
2
Properties=species:S:1:pos:R:3:forces:R:3 energy=-26.091920410415725 pbc="F F F"
Br       0.00000000       0.00000000       0.00000000       0.00000000       0.00000000       1.18264568
Br       0.00000000       0.00000000       2.36464646       0.00000000       0.00000000      -1.18264568
2
Properties=species:S:1:pos:R:3:forces:R:3 energy=-26.006682251639372 pbc="F F F"
Br       0.00000000       0.00000000       0.00000000       0.00000000       0.00000000       1.62421989
Br       0.00000000       0.00000000       2.42424242       0.00000000       0.00000000      -1.62421989
2
Properties=species:S:1:pos:R:3:forces:R:3 energy=-25.90385690582092 pbc="F F F"
Br       0.00000000       0.00000000       0.00000000       0.00000000       0.00000000       1.78909886
Br       0.00000000       0.00000000       2.48383838       0.00000000       0.00000000      -1.78909886
2
Properties=species:S:1:pos:R:3:forces:R:3 energy=-25.796757477931983 pbc="F F F"
Br       0.00000000       0.00000000       0.00000000       0.00000000       0.00000000       1.78598750
Br       0.00000000       0.00000000       2.54343434       0.00000000       0.00000000      -1.78598750
2
Properties=species:S:1:pos:R:3:forces:R:3 energy=-25.692427583142077 pbc="F F F"
Br       0.00000000       0.00000000       0.00000000       0.00000000       0.00000000       1.70899892
Br       0.00000000       0.00000000       2.60303030       0.00000000       0.00000000      -1.70899892
2
Properties=species:S:1:pos:R:3:forces:R:3 energy=-25.593161439530572 pbc="F F F"
Br       0.00000000       0.00000000       0.00000000       0.00000000       0.00000000       1.62702084
Br       0.00000000       0.00000000       2.66262626       0.00000000       0.00000000      -1.62702084
2
Properties=species:S:1:pos:R:3:forces:R:3 energy=-25.497295424896908 pbc="F F F"
Br       0.00000000       0.00000000       0.00000000       0.00000000       0.00000000       1.60484374
Br       0.00000000       0.00000000       2.72222222       0.00000000       0.00000000      -1.60484374
2
Properties=species:S:1:pos:R:3:forces:R:3 energy=-25.399854510347975 pbc="F F F"
Br       0.00000000       0.00000000       0.00000000       0.00000000       0.00000000       1.68239594
Br       0.00000000       0.00000000       2.78181818       0.00000000       0.00000000      -1.68239594
2
Properties=species:S:1:pos:R:3:forces:R:3 energy=-25.295029769955764 pbc="F F F"
Br       0.00000000       0.00000000       0.00000000       0.00000000       0.00000000       1.84603095
Br       0.00000000       0.00000000       2.84141414       0.00000000       0.00000000      -1.84603095
2
Properties=species:S:1:pos:R:3:forces:R:3 energy=-25.179209191789024 pbc="F F F"
Br       0.00000000       0.00000000       0.00000000       0.00000000       0.00000000       2.04003453
Br       0.00000000       0.00000000       2.90101010       0.00000000       0.00000000      -2.04003453
2
Properties=species:S:1:pos:R:3:forces:R:3 energy=-25.052744383263118 pbc="F F F"
Br       0.00000000       0.00000000       0.00000000       0.00000000       0.00000000       2.19058967
Br       0.00000000       0.00000000       2.96060606       0.00000000       0.00000000      -2.19058967
2
Properties=species:S:1:pos:R:3:forces:R:3 energy=-24.920259133642865 pbc="F F F"
Br       0.00000000       0.00000000       0.00000000       0.00000000       0.00000000       2.23445249
Br       0.00000000       0.00000000       3.02020202       0.00000000       0.00000000      -2.23445249
2
Properties=species:S:1:pos:R:3:forces:R:3 energy=-24.788906873508566 pbc="F F F"
Br       0.00000000       0.00000000       0.00000000       0.00000000       0.00000000       2.15475345
Br       0.00000000       0.00000000       3.07979798       0.00000000       0.00000000      -2.15475345
2
Properties=species:S:1:pos:R:3:forces:R:3 energy=-24.66520051672012 pbc="F F F"
Br       0.00000000       0.00000000       0.00000000       0.00000000       0.00000000       1.98654246
Br       0.00000000       0.00000000       3.13939394       0.00000000       0.00000000      -1.98654246
2
Properties=species:S:1:pos:R:3:forces:R:3 energy=-24.55281653383626 pbc="F F F"
Br       0.00000000       0.00000000       0.00000000       0.00000000       0.00000000       1.78308558
Br       0.00000000       0.00000000       3.19898990       0.00000000       0.00000000      -1.78308558
2
Properties=species:S:1:pos:R:3:forces:R:3 energy=-24.452593307695178 pbc="F F F"
Br       0.00000000       0.00000000       0.00000000       0.00000000       0.00000000       1.58275461
Br       0.00000000       0.00000000       3.25858586       0.00000000       0.00000000      -1.58275461
2
Properties=species:S:1:pos:R:3:forces:R:3 energy=-24.363785629173492 pbc="F F F"
Br       0.00000000       0.00000000       0.00000000       0.00000000       0.00000000       1.40106606
Br       0.00000000       0.00000000       3.31818182       0.00000000       0.00000000      -1.40106606
2
Properties=species:S:1:pos:R:3:forces:R:3 energy=-24.28520598066997 pbc="F F F"
Br       0.00000000       0.00000000       0.00000000       0.00000000       0.00000000       1.23893571
Br       0.00000000       0.00000000       3.37777778       0.00000000       0.00000000      -1.23893571
2
Properties=species:S:1:pos:R:3:forces:R:3 energy=-24.21580644137335 pbc="F F F"
Br       0.00000000       0.00000000       0.00000000       0.00000000       0.00000000       1.09230924
Br       0.00000000       0.00000000       3.43737374       0.00000000       0.00000000      -1.09230924
2
Properties=species:S:1:pos:R:3:forces:R:3 energy=-24.15477964131548 pbc="F F F"
Br       0.00000000       0.00000000       0.00000000       0.00000000       0.00000000       0.95738971
Br       0.00000000       0.00000000       3.49696970       0.00000000       0.00000000      -0.95738971
2
Properties=species:S:1:pos:R:3:forces:R:3 energy=-24.101501444293746 pbc="F F F"
Br       0.00000000       0.00000000       0.00000000       0.00000000       0.00000000       0.83215368
Br       0.00000000       0.00000000       3.55656566       0.00000000       0.00000000      -0.83215368
2
Properties=species:S:1:pos:R:3:forces:R:3 energy=-24.055410788075044 pbc="F F F"
Br       0.00000000       0.00000000       0.00000000       0.00000000       0.00000000       0.71618664
Br       0.00000000       0.00000000       3.61616162       0.00000000       0.00000000      -0.71618664
2
Properties=species:S:1:pos:R:3:forces:R:3 energy=-24.01594284087047 pbc="F F F"
Br       0.00000000       0.00000000       0.00000000       0.00000000       0.00000000       0.61004061
Br       0.00000000       0.00000000       3.67575758       0.00000000       0.00000000      -0.61004061
2
Properties=species:S:1:pos:R:3:forces:R:3 energy=-23.98248511806156 pbc="F F F"
Br       0.00000000       0.00000000       0.00000000       0.00000000       0.00000000       0.51461345
Br       0.00000000       0.00000000       3.73535354       0.00000000       0.00000000      -0.51461345
2
Properties=species:S:1:pos:R:3:forces:R:3 energy=-23.95437752179808 pbc="F F F"
Br       0.00000000       0.00000000       0.00000000       0.00000000       0.00000000       0.43064407
Br       0.00000000       0.00000000       3.79494949       0.00000000       0.00000000      -0.43064407
2
Properties=species:S:1:pos:R:3:forces:R:3 energy=-23.930923743908117 pbc="F F F"
Br       0.00000000       0.00000000       0.00000000       0.00000000       0.00000000       0.35834309
Br       0.00000000       0.00000000       3.85454545       0.00000000       0.00000000      -0.35834309
2
Properties=species:S:1:pos:R:3:forces:R:3 energy=-23.911444661364396 pbc="F F F"
Br       0.00000000       0.00000000       0.00000000       0.00000000       0.00000000       0.29718411
Br       0.00000000       0.00000000       3.91414141       0.00000000       0.00000000      -0.29718411
2
Properties=species:S:1:pos:R:3:forces:R:3 energy=-23.89530509381006 pbc="F F F"
Br       0.00000000       0.00000000       0.00000000       0.00000000       0.00000000       0.24589130
Br       0.00000000       0.00000000       3.97373737       0.00000000       0.00000000      -0.24589130
2
Properties=species:S:1:pos:R:3:forces:R:3 energy=-23.881976703297944 pbc="F F F"
Br       0.00000000       0.00000000       0.00000000       0.00000000       0.00000000       0.20260334
Br       0.00000000       0.00000000       4.03333333       0.00000000       0.00000000      -0.20260334
2
Properties=species:S:1:pos:R:3:forces:R:3 energy=-23.871041813739605 pbc="F F F"
Br       0.00000000       0.00000000       0.00000000       0.00000000       0.00000000       0.16515137
Br       0.00000000       0.00000000       4.09292929       0.00000000       0.00000000      -0.16515137
2
Properties=species:S:1:pos:R:3:forces:R:3 energy=-23.862218242075514 pbc="F F F"
Br       0.00000000       0.00000000       0.00000000       0.00000000       0.00000000       0.13143387
Br       0.00000000       0.00000000       4.15252525       0.00000000       0.00000000      -0.13143387
2
Properties=species:S:1:pos:R:3:forces:R:3 energy=-23.855334467896803 pbc="F F F"
Br       0.00000000       0.00000000       0.00000000       0.00000000       0.00000000       0.09978817
Br       0.00000000       0.00000000       4.21212121       0.00000000       0.00000000      -0.09978817
2
Properties=species:S:1:pos:R:3:forces:R:3 energy=-23.850301056477903 pbc="F F F"
Br       0.00000000       0.00000000       0.00000000       0.00000000       0.00000000       0.06925505
Br       0.00000000       0.00000000       4.27171717       0.00000000       0.00000000      -0.06925505
2
Properties=species:S:1:pos:R:3:forces:R:3 energy=-23.847061031282134 pbc="F F F"
Br       0.00000000       0.00000000       0.00000000       0.00000000       0.00000000       0.03968593
Br       0.00000000       0.00000000       4.33131313       0.00000000       0.00000000      -0.03968593
2
Properties=species:S:1:pos:R:3:forces:R:3 energy=-23.845542238159197 pbc="F F F"
Br       0.00000000       0.00000000       0.00000000       0.00000000       0.00000000       0.01163683
Br       0.00000000       0.00000000       4.39090909       0.00000000       0.00000000      -0.01163683
2
Properties=species:S:1:pos:R:3:forces:R:3 energy=-23.84562486300164 pbc="F F F"
Br       0.00000000       0.00000000       0.00000000       0.00000000       0.00000000      -0.01388012
Br       0.00000000       0.00000000       4.45050505       0.00000000       0.00000000       0.01388012
2
Properties=species:S:1:pos:R:3:forces:R:3 energy=-23.847122407359773 pbc="F F F"
Br       0.00000000       0.00000000       0.00000000       0.00000000       0.00000000      -0.03570704
Br       0.00000000       0.00000000       4.51010101       0.00000000       0.00000000       0.03570704
2
Properties=species:S:1:pos:R:3:forces:R:3 energy=-23.849785467500926 pbc="F F F"
Br       0.00000000       0.00000000       0.00000000       0.00000000       0.00000000      -0.05281122
Br       0.00000000       0.00000000       4.56969697       0.00000000       0.00000000       0.05281122
2
Properties=species:S:1:pos:R:3:forces:R:3 energy=-23.853309360240196 pbc="F F F"
Br       0.00000000       0.00000000       0.00000000       0.00000000       0.00000000      -0.06447458
Br       0.00000000       0.00000000       4.62929293       0.00000000       0.00000000       0.06447458
2
Properties=species:S:1:pos:R:3:forces:R:3 energy=-23.85735701983554 pbc="F F F"
Br       0.00000000       0.00000000       0.00000000       0.00000000       0.00000000      -0.07042121
Br       0.00000000       0.00000000       4.68888889       0.00000000       0.00000000       0.07042121
2
Properties=species:S:1:pos:R:3:forces:R:3 energy=-23.86159331957177 pbc="F F F"
Br       0.00000000       0.00000000       0.00000000       0.00000000       0.00000000      -0.07089441
Br       0.00000000       0.00000000       4.74848485       0.00000000       0.00000000       0.07089441
2
Properties=species:S:1:pos:R:3:forces:R:3 energy=-23.865713652687692 pbc="F F F"
Br       0.00000000       0.00000000       0.00000000       0.00000000       0.00000000      -0.06668185
Br       0.00000000       0.00000000       4.80808081       0.00000000       0.00000000       0.06668185
2
Properties=species:S:1:pos:R:3:forces:R:3 energy=-23.869474468961155 pbc="F F F"
Br       0.00000000       0.00000000       0.00000000       0.00000000       0.00000000      -0.05906241
Br       0.00000000       0.00000000       4.86767677       0.00000000       0.00000000       0.05906241
2
Properties=species:S:1:pos:R:3:forces:R:3 energy=-23.87271805004642 pbc="F F F"
Br       0.00000000       0.00000000       0.00000000       0.00000000       0.00000000      -0.04963271
Br       0.00000000       0.00000000       4.92727273       0.00000000       0.00000000       0.04963271
2
Properties=species:S:1:pos:R:3:forces:R:3 energy=-23.87538585774677 pbc="F F F"
Br       0.00000000       0.00000000       0.00000000       0.00000000       0.00000000      -0.04002225
Br       0.00000000       0.00000000       4.98686869       0.00000000       0.00000000       0.04002225
2
Properties=species:S:1:pos:R:3:forces:R:3 energy=-23.87751087848544 pbc="F F F"
Br       0.00000000       0.00000000       0.00000000       0.00000000       0.00000000      -0.03154944
Br       0.00000000       0.00000000       5.04646465       0.00000000       0.00000000       0.03154944
2
Properties=species:S:1:pos:R:3:forces:R:3 energy=-23.879183306869336 pbc="F F F"
Br       0.00000000       0.00000000       0.00000000       0.00000000       0.00000000      -0.02488907
Br       0.00000000       0.00000000       5.10606061       0.00000000       0.00000000       0.02488907
2
Properties=species:S:1:pos:R:3:forces:R:3 energy=-23.880508559864474 pbc="F F F"
Br       0.00000000       0.00000000       0.00000000       0.00000000       0.00000000      -0.01975322
Br       0.00000000       0.00000000       5.16565657       0.00000000       0.00000000       0.01975322
2
Properties=species:S:1:pos:R:3:forces:R:3 energy=-23.881538622144635 pbc="F F F"
Br       0.00000000       0.00000000       0.00000000       0.00000000       0.00000000      -0.01464663
Br       0.00000000       0.00000000       5.22525253       0.00000000       0.00000000       0.01464663
2
Properties=species:S:1:pos:R:3:forces:R:3 energy=-23.8822033601578 pbc="F F F"
Br       0.00000000       0.00000000       0.00000000       0.00000000       0.00000000      -0.00698570
Br       0.00000000       0.00000000       5.28484848       0.00000000       0.00000000       0.00698570
2
Properties=species:S:1:pos:R:3:forces:R:3 energy=-23.88228001088365 pbc="F F F"
Br       0.00000000       0.00000000       0.00000000       0.00000000       0.00000000       0.00504605
Br       0.00000000       0.00000000       5.34444444       0.00000000       0.00000000      -0.00504605
2
Properties=species:S:1:pos:R:3:forces:R:3 energy=-23.881595359600727 pbc="F F F"
Br       0.00000000       0.00000000       0.00000000       0.00000000       0.00000000       0.01692770
Br       0.00000000       0.00000000       5.40404040       0.00000000       0.00000000      -0.01692770
2
Properties=species:S:1:pos:R:3:forces:R:3 energy=-23.8805426262182 pbc="F F F"
Br       0.00000000       0.00000000       0.00000000       0.00000000       0.00000000       0.01509938
Br       0.00000000       0.00000000       5.46363636       0.00000000       0.00000000      -0.01509938
2
Properties=species:S:1:pos:R:3:forces:R:3 energy=-23.880108163009037 pbc="F F F"
Br       0.00000000       0.00000000       0.00000000       0.00000000       0.00000000      -0.00106672
Br       0.00000000       0.00000000       5.52323232       0.00000000       0.00000000       0.00106672
2
Properties=species:S:1:pos:R:3:forces:R:3 energy=-23.880454313582725 pbc="F F F"
Br       0.00000000       0.00000000       0.00000000       0.00000000       0.00000000      -0.00754751
Br       0.00000000       0.00000000       5.58282828       0.00000000       0.00000000       0.00754751
2
Properties=species:S:1:pos:R:3:forces:R:3 energy=-23.880776339167102 pbc="F F F"
Br       0.00000000       0.00000000       0.00000000       0.00000000       0.00000000      -0.00330870
Br       0.00000000       0.00000000       5.64242424       0.00000000       0.00000000       0.00330870
2
Properties=species:S:1:pos:R:3:forces:R:3 energy=-23.881099160819353 pbc="F F F"
Br       0.00000000       0.00000000       0.00000000       0.00000000       0.00000000      -0.01099865
Br       0.00000000       0.00000000       5.70202020       0.00000000       0.00000000       0.01099865
2
Properties=species:S:1:pos:R:3:forces:R:3 energy=-23.88244329677716 pbc="F F F"
Br       0.00000000       0.00000000       0.00000000       0.00000000       0.00000000      -0.03512723
Br       0.00000000       0.00000000       5.76161616       0.00000000       0.00000000       0.03512723
2
Properties=species:S:1:pos:R:3:forces:R:3 energy=-23.8850166943709 pbc="F F F"
Br       0.00000000       0.00000000       0.00000000       0.00000000       0.00000000      -0.04637841
Br       0.00000000       0.00000000       5.82121212       0.00000000       0.00000000       0.04637841
2
Properties=species:S:1:pos:R:3:forces:R:3 energy=-23.887386951012417 pbc="F F F"
Br       0.00000000       0.00000000       0.00000000       0.00000000       0.00000000      -0.03013515
Br       0.00000000       0.00000000       5.88080808       0.00000000       0.00000000       0.03013515
2
Properties=species:S:1:pos:R:3:forces:R:3 energy=-23.88849547435128 pbc="F F F"
Br       0.00000000       0.00000000       0.00000000       0.00000000       0.00000000      -0.00757809
Br       0.00000000       0.00000000       5.94040404       0.00000000       0.00000000       0.00757809
2
Properties=species:S:1:pos:R:3:forces:R:3 energy=-23.88857301080646 pbc="F F F"
Br       0.00000000       0.00000000       0.00000000       0.00000000       0.00000000       0.00179626
Br       0.00000000       0.00000000       6.00000000       0.00000000       0.00000000      -0.00179626
