2
Properties=species:S:1:pos:R:3:forces:R:3 energy=54864.3041697632 pbc="F F F"
Ca       0.00000000       0.00000000       0.00000000       0.00000000       0.00000000 -210271.56250000
Ca       0.00000000       0.00000000       0.10000000       0.00000000       0.00000000  210271.56250000
2
Properties=species:S:1:pos:R:3:forces:R:3 energy=48255.8471385132 pbc="F F F"
Ca       0.00000000       0.00000000       0.00000000       0.00000000       0.00000000  -56163.56640625
Ca       0.00000000       0.00000000       0.15959596       0.00000000       0.00000000   56163.56640625
2
Properties=species:S:1:pos:R:3:forces:R:3 energy=45882.4721385132 pbc="F F F"
Ca       0.00000000       0.00000000       0.00000000       0.00000000       0.00000000  -31933.16992188
Ca       0.00000000       0.00000000       0.21919192       0.00000000       0.00000000   31933.16992188
2
Properties=species:S:1:pos:R:3:forces:R:3 energy=43836.3237010132 pbc="F F F"
Ca       0.00000000       0.00000000       0.00000000       0.00000000       0.00000000  -40204.37890625
Ca       0.00000000       0.00000000       0.27878788       0.00000000       0.00000000   40204.37890625
2
Properties=species:S:1:pos:R:3:forces:R:3 energy=40756.4096385132 pbc="F F F"
Ca       0.00000000       0.00000000       0.00000000       0.00000000       0.00000000  -65447.92578125
Ca       0.00000000       0.00000000       0.33838384       0.00000000       0.00000000   65447.92578125
2
Properties=species:S:1:pos:R:3:forces:R:3 energy=35830.073701016365 pbc="F F F"
Ca       0.00000000       0.00000000       0.00000000       0.00000000       0.00000000 -100871.18750000
Ca       0.00000000       0.00000000       0.39797980       0.00000000       0.00000000  100871.18750000
2
Properties=species:S:1:pos:R:3:forces:R:3 energy=28825.009247891365 pbc="F F F"
Ca       0.00000000       0.00000000       0.00000000       0.00000000       0.00000000 -133211.50000000
Ca       0.00000000       0.00000000       0.45757576       0.00000000       0.00000000  133211.50000000
2
Properties=species:S:1:pos:R:3:forces:R:3 energy=20219.020966641365 pbc="F F F"
Ca       0.00000000       0.00000000       0.00000000       0.00000000       0.00000000 -151344.03125000
Ca       0.00000000       0.00000000       0.51717172       0.00000000       0.00000000  151344.03125000
2
Properties=species:S:1:pos:R:3:forces:R:3 energy=11436.1264353977 pbc="F F F"
Ca       0.00000000       0.00000000       0.00000000       0.00000000       0.00000000 -137292.25000000
Ca       0.00000000       0.00000000       0.57676768       0.00000000       0.00000000  137292.25000000
2
Properties=species:S:1:pos:R:3:forces:R:3 energy=4519.998993997786 pbc="F F F"
Ca       0.00000000       0.00000000       0.00000000       0.00000000       0.00000000  -90711.98437500
Ca       0.00000000       0.00000000       0.63636364       0.00000000       0.00000000   90711.98437500
2
Properties=species:S:1:pos:R:3:forces:R:3 energy=804.9023143229567 pbc="F F F"
Ca       0.00000000       0.00000000       0.00000000       0.00000000       0.00000000  -33836.07031250
Ca       0.00000000       0.00000000       0.69595960       0.00000000       0.00000000   33836.07031250
2
Properties=species:S:1:pos:R:3:forces:R:3 energy=27.474761165083777 pbc="F F F"
Ca       0.00000000       0.00000000       0.00000000       0.00000000       0.00000000    -717.23016357
Ca       0.00000000       0.00000000       0.75555556       0.00000000       0.00000000     717.23016357
2
Properties=species:S:1:pos:R:3:forces:R:3 energy=13.91522902489901 pbc="F F F"
Ca       0.00000000       0.00000000       0.00000000       0.00000000       0.00000000      53.50876236
Ca       0.00000000       0.00000000       0.81515152       0.00000000       0.00000000     -53.50876236
2
Properties=species:S:1:pos:R:3:forces:R:3 energy=24.744391666904768 pbc="F F F"
Ca       0.00000000       0.00000000       0.00000000       0.00000000       0.00000000     222.36746216
Ca       0.00000000       0.00000000       0.87474747       0.00000000       0.00000000    -222.36746216
2
Properties=species:S:1:pos:R:3:forces:R:3 energy=28.88565758989837 pbc="F F F"
Ca       0.00000000       0.00000000       0.00000000       0.00000000       0.00000000    -111.34584045
Ca       0.00000000       0.00000000       0.93434343       0.00000000       0.00000000     111.34584045
2
Properties=species:S:1:pos:R:3:forces:R:3 energy=23.270911575343924 pbc="F F F"
Ca       0.00000000       0.00000000       0.00000000       0.00000000       0.00000000     -85.01412964
Ca       0.00000000       0.00000000       0.99393939       0.00000000       0.00000000      85.01412964
2
Properties=species:S:1:pos:R:3:forces:R:3 energy=18.665238843578344 pbc="F F F"
Ca       0.00000000       0.00000000       0.00000000       0.00000000       0.00000000     -70.60411835
Ca       0.00000000       0.00000000       1.05353535       0.00000000       0.00000000      70.60411835
2
Properties=species:S:1:pos:R:3:forces:R:3 energy=14.792411456223114 pbc="F F F"
Ca       0.00000000       0.00000000       0.00000000       0.00000000       0.00000000     -58.66971970
Ca       0.00000000       0.00000000       1.11313131       0.00000000       0.00000000      58.66971970
2
Properties=species:S:1:pos:R:3:forces:R:3 energy=11.675960376529064 pbc="F F F"
Ca       0.00000000       0.00000000       0.00000000       0.00000000       0.00000000     -47.07655716
Ca       0.00000000       0.00000000       1.17272727       0.00000000       0.00000000      47.07655716
2
Properties=species:S:1:pos:R:3:forces:R:3 energy=9.019140320042336 pbc="F F F"
Ca       0.00000000       0.00000000       0.00000000       0.00000000       0.00000000     -43.00451660
Ca       0.00000000       0.00000000       1.23232323       0.00000000       0.00000000      43.00451660
2
Properties=species:S:1:pos:R:3:forces:R:3 energy=6.499523543464786 pbc="F F F"
Ca       0.00000000       0.00000000       0.00000000       0.00000000       0.00000000     -41.67905426
Ca       0.00000000       0.00000000       1.29191919       0.00000000       0.00000000      41.67905426
2
Properties=species:S:1:pos:R:3:forces:R:3 energy=4.052180103645143 pbc="F F F"
Ca       0.00000000       0.00000000       0.00000000       0.00000000       0.00000000     -40.33936691
Ca       0.00000000       0.00000000       1.35151515       0.00000000       0.00000000      40.33936691
2
Properties=species:S:1:pos:R:3:forces:R:3 energy=1.7151806919656327 pbc="F F F"
Ca       0.00000000       0.00000000       0.00000000       0.00000000       0.00000000     -37.82395554
Ca       0.00000000       0.00000000       1.41111111       0.00000000       0.00000000      37.82395554
2
Properties=species:S:1:pos:R:3:forces:R:3 energy=-0.4230928989582177 pbc="F F F"
Ca       0.00000000       0.00000000       0.00000000       0.00000000       0.00000000     -33.68197250
Ca       0.00000000       0.00000000       1.47070707       0.00000000       0.00000000      33.68197250
2
Properties=species:S:1:pos:R:3:forces:R:3 energy=-2.2760007753210867 pbc="F F F"
Ca       0.00000000       0.00000000       0.00000000       0.00000000       0.00000000     -28.36506462
Ca       0.00000000       0.00000000       1.53030303       0.00000000       0.00000000      28.36506462
2
Properties=species:S:1:pos:R:3:forces:R:3 energy=-3.794783441827712 pbc="F F F"
Ca       0.00000000       0.00000000       0.00000000       0.00000000       0.00000000     -22.58501244
Ca       0.00000000       0.00000000       1.58989899       0.00000000       0.00000000      22.58501244
2
Properties=species:S:1:pos:R:3:forces:R:3 energy=-4.972544857321405 pbc="F F F"
Ca       0.00000000       0.00000000       0.00000000       0.00000000       0.00000000     -17.03231621
Ca       0.00000000       0.00000000       1.64949495       0.00000000       0.00000000      17.03231621
2
Properties=species:S:1:pos:R:3:forces:R:3 energy=-5.841004674724775 pbc="F F F"
Ca       0.00000000       0.00000000       0.00000000       0.00000000       0.00000000     -12.28104019
Ca       0.00000000       0.00000000       1.70909091       0.00000000       0.00000000      12.28104019
2
Properties=species:S:1:pos:R:3:forces:R:3 energy=-6.458372275274442 pbc="F F F"
Ca       0.00000000       0.00000000       0.00000000       0.00000000       0.00000000      -8.62548637
Ca       0.00000000       0.00000000       1.76868687       0.00000000       0.00000000       8.62548637
2
Properties=species:S:1:pos:R:3:forces:R:3 energy=-6.889903742898779 pbc="F F F"
Ca       0.00000000       0.00000000       0.00000000       0.00000000       0.00000000      -6.01160765
Ca       0.00000000       0.00000000       1.82828283       0.00000000       0.00000000       6.01160765
2
Properties=species:S:1:pos:R:3:forces:R:3 energy=-7.190938836977231 pbc="F F F"
Ca       0.00000000       0.00000000       0.00000000       0.00000000       0.00000000      -4.20688343
Ca       0.00000000       0.00000000       1.88787879       0.00000000       0.00000000       4.20688343
2
Properties=species:S:1:pos:R:3:forces:R:3 energy=-7.403339524116097 pbc="F F F"
Ca       0.00000000       0.00000000       0.00000000       0.00000000       0.00000000      -3.00806165
Ca       0.00000000       0.00000000       1.94747475       0.00000000       0.00000000       3.00806165
2
Properties=species:S:1:pos:R:3:forces:R:3 energy=-7.558405341526855 pbc="F F F"
Ca       0.00000000       0.00000000       0.00000000       0.00000000       0.00000000      -2.25997376
Ca       0.00000000       0.00000000       2.00707071       0.00000000       0.00000000       2.25997376
2
Properties=species:S:1:pos:R:3:forces:R:3 energy=-7.6793257673629745 pbc="F F F"
Ca       0.00000000       0.00000000       0.00000000       0.00000000       0.00000000      -1.84661293
Ca       0.00000000       0.00000000       2.06666667       0.00000000       0.00000000       1.84661293
2
Properties=species:S:1:pos:R:3:forces:R:3 energy=-7.7837213049429135 pbc="F F F"
Ca       0.00000000       0.00000000       0.00000000       0.00000000       0.00000000      -1.69648743
Ca       0.00000000       0.00000000       2.12626263       0.00000000       0.00000000       1.69648743
2
Properties=species:S:1:pos:R:3:forces:R:3 energy=-7.885798755026978 pbc="F F F"
Ca       0.00000000       0.00000000       0.00000000       0.00000000       0.00000000      -1.76057398
Ca       0.00000000       0.00000000       2.18585859       0.00000000       0.00000000       1.76057398
2
Properties=species:S:1:pos:R:3:forces:R:3 energy=-7.996655959110924 pbc="F F F"
Ca       0.00000000       0.00000000       0.00000000       0.00000000       0.00000000      -1.97934651
Ca       0.00000000       0.00000000       2.24545455       0.00000000       0.00000000       1.97934651
2
Properties=species:S:1:pos:R:3:forces:R:3 energy=-8.12323319966902 pbc="F F F"
Ca       0.00000000       0.00000000       0.00000000       0.00000000       0.00000000      -2.27425694
Ca       0.00000000       0.00000000       2.30505051       0.00000000       0.00000000       2.27425694
2
Properties=species:S:1:pos:R:3:forces:R:3 energy=-8.26765801956304 pbc="F F F"
Ca       0.00000000       0.00000000       0.00000000       0.00000000       0.00000000      -2.56639981
Ca       0.00000000       0.00000000       2.36464646       0.00000000       0.00000000       2.56639981
2
Properties=species:S:1:pos:R:3:forces:R:3 energy=-8.427906175364322 pbc="F F F"
Ca       0.00000000       0.00000000       0.00000000       0.00000000       0.00000000      -2.79808044
Ca       0.00000000       0.00000000       2.42424242       0.00000000       0.00000000       2.79808044
2
Properties=species:S:1:pos:R:3:forces:R:3 energy=-8.59938081114797 pbc="F F F"
Ca       0.00000000       0.00000000       0.00000000       0.00000000       0.00000000      -2.94072533
Ca       0.00000000       0.00000000       2.48383838       0.00000000       0.00000000       2.94072533
2
Properties=species:S:1:pos:R:3:forces:R:3 energy=-8.776554398897872 pbc="F F F"
Ca       0.00000000       0.00000000       0.00000000       0.00000000       0.00000000      -2.99007535
Ca       0.00000000       0.00000000       2.54343434       0.00000000       0.00000000       2.99007535
2
Properties=species:S:1:pos:R:3:forces:R:3 energy=-8.954121556525019 pbc="F F F"
Ca       0.00000000       0.00000000       0.00000000       0.00000000       0.00000000      -2.95640349
Ca       0.00000000       0.00000000       2.60303030       0.00000000       0.00000000       2.95640349
2
Properties=species:S:1:pos:R:3:forces:R:3 energy=-9.127609513471597 pbc="F F F"
Ca       0.00000000       0.00000000       0.00000000       0.00000000       0.00000000      -2.85615873
Ca       0.00000000       0.00000000       2.66262626       0.00000000       0.00000000       2.85615873
2
Properties=species:S:1:pos:R:3:forces:R:3 energy=-9.293585054869835 pbc="F F F"
Ca       0.00000000       0.00000000       0.00000000       0.00000000       0.00000000      -2.70720696
Ca       0.00000000       0.00000000       2.72222222       0.00000000       0.00000000       2.70720696
2
Properties=species:S:1:pos:R:3:forces:R:3 energy=-9.44966018023145 pbc="F F F"
Ca       0.00000000       0.00000000       0.00000000       0.00000000       0.00000000      -2.52666545
Ca       0.00000000       0.00000000       2.78181818       0.00000000       0.00000000       2.52666545
2
Properties=species:S:1:pos:R:3:forces:R:3 energy=-9.594416050256825 pbc="F F F"
Ca       0.00000000       0.00000000       0.00000000       0.00000000       0.00000000      -2.32956600
Ca       0.00000000       0.00000000       2.84141414       0.00000000       0.00000000       2.32956600
2
Properties=species:S:1:pos:R:3:forces:R:3 energy=-9.7272292438792 pbc="F F F"
Ca       0.00000000       0.00000000       0.00000000       0.00000000       0.00000000      -2.12748194
Ca       0.00000000       0.00000000       2.90101010       0.00000000       0.00000000       2.12748194
2
Properties=species:S:1:pos:R:3:forces:R:3 energy=-9.84803920111565 pbc="F F F"
Ca       0.00000000       0.00000000       0.00000000       0.00000000       0.00000000      -1.92744422
Ca       0.00000000       0.00000000       2.96060606       0.00000000       0.00000000       1.92744422
2
Properties=species:S:1:pos:R:3:forces:R:3 energy=-9.957059335776936 pbc="F F F"
Ca       0.00000000       0.00000000       0.00000000       0.00000000       0.00000000      -1.73196459
Ca       0.00000000       0.00000000       3.02020202       0.00000000       0.00000000       1.73196459
2
Properties=species:S:1:pos:R:3:forces:R:3 energy=-10.054552937842269 pbc="F F F"
Ca       0.00000000       0.00000000       0.00000000       0.00000000       0.00000000      -1.54037154
Ca       0.00000000       0.00000000       3.07979798       0.00000000       0.00000000       1.54037154
2
Properties=species:S:1:pos:R:3:forces:R:3 energy=-10.140696893066721 pbc="F F F"
Ca       0.00000000       0.00000000       0.00000000       0.00000000       0.00000000      -1.35071003
Ca       0.00000000       0.00000000       3.13939394       0.00000000       0.00000000       1.35071003
2
Properties=species:S:1:pos:R:3:forces:R:3 energy=-10.215550230735728 pbc="F F F"
Ca       0.00000000       0.00000000       0.00000000       0.00000000       0.00000000      -1.16124916
Ca       0.00000000       0.00000000       3.19898990       0.00000000       0.00000000       1.16124916
2
Properties=species:S:1:pos:R:3:forces:R:3 energy=-10.279098974868342 pbc="F F F"
Ca       0.00000000       0.00000000       0.00000000       0.00000000       0.00000000      -0.97130895
Ca       0.00000000       0.00000000       3.25858586       0.00000000       0.00000000       0.97130895
2
Properties=species:S:1:pos:R:3:forces:R:3 energy=-10.331331449642203 pbc="F F F"
Ca       0.00000000       0.00000000       0.00000000       0.00000000       0.00000000      -0.78187054
Ca       0.00000000       0.00000000       3.31818182       0.00000000       0.00000000       0.78187054
2
Properties=species:S:1:pos:R:3:forces:R:3 energy=-10.372360232496607 pbc="F F F"
Ca       0.00000000       0.00000000       0.00000000       0.00000000       0.00000000      -0.59600788
Ca       0.00000000       0.00000000       3.37777778       0.00000000       0.00000000       0.59600788
2
Properties=species:S:1:pos:R:3:forces:R:3 energy=-10.402543201078606 pbc="F F F"
Ca       0.00000000       0.00000000       0.00000000       0.00000000       0.00000000      -0.41891012
Ca       0.00000000       0.00000000       3.43737374       0.00000000       0.00000000       0.41891012
2
Properties=species:S:1:pos:R:3:forces:R:3 energy=-10.422594023247358 pbc="F F F"
Ca       0.00000000       0.00000000       0.00000000       0.00000000       0.00000000      -0.25704637
Ca       0.00000000       0.00000000       3.49696970       0.00000000       0.00000000       0.25704637
2
Properties=species:S:1:pos:R:3:forces:R:3 energy=-10.433610425018982 pbc="F F F"
Ca       0.00000000       0.00000000       0.00000000       0.00000000       0.00000000      -0.11672279
Ca       0.00000000       0.00000000       3.55656566       0.00000000       0.00000000       0.11672279
2
Properties=species:S:1:pos:R:3:forces:R:3 energy=-10.437027473036483 pbc="F F F"
Ca       0.00000000       0.00000000       0.00000000       0.00000000       0.00000000      -0.00250506
Ca       0.00000000       0.00000000       3.61616162       0.00000000       0.00000000       0.00250506
2
Properties=species:S:1:pos:R:3:forces:R:3 energy=-10.434462863439052 pbc="F F F"
Ca       0.00000000       0.00000000       0.00000000       0.00000000       0.00000000       0.08395629
Ca       0.00000000       0.00000000       3.67575758       0.00000000       0.00000000      -0.08395629
2
Properties=species:S:1:pos:R:3:forces:R:3 energy=-10.427541156716766 pbc="F F F"
Ca       0.00000000       0.00000000       0.00000000       0.00000000       0.00000000       0.14426777
Ca       0.00000000       0.00000000       3.73535354       0.00000000       0.00000000      -0.14426777
2
Properties=species:S:1:pos:R:3:forces:R:3 energy=-10.417700922295506 pbc="F F F"
Ca       0.00000000       0.00000000       0.00000000       0.00000000       0.00000000       0.18277064
Ca       0.00000000       0.00000000       3.79494949       0.00000000       0.00000000      -0.18277064
2
Properties=species:S:1:pos:R:3:forces:R:3 energy=-10.40607278463462 pbc="F F F"
Ca       0.00000000       0.00000000       0.00000000       0.00000000       0.00000000       0.20535213
Ca       0.00000000       0.00000000       3.85454545       0.00000000       0.00000000      -0.20535213
2
Properties=species:S:1:pos:R:3:forces:R:3 energy=-10.39341817931411 pbc="F F F"
Ca       0.00000000       0.00000000       0.00000000       0.00000000       0.00000000       0.21820091
Ca       0.00000000       0.00000000       3.91414141       0.00000000       0.00000000      -0.21820091
2
Properties=species:S:1:pos:R:3:forces:R:3 energy=-10.380144095497863 pbc="F F F"
Ca       0.00000000       0.00000000       0.00000000       0.00000000       0.00000000       0.22704202
Ca       0.00000000       0.00000000       3.97373737       0.00000000       0.00000000      -0.22704202
2
Properties=species:S:1:pos:R:3:forces:R:3 energy=-10.366336591928373 pbc="F F F"
Ca       0.00000000       0.00000000       0.00000000       0.00000000       0.00000000       0.23685746
Ca       0.00000000       0.00000000       4.03333333       0.00000000       0.00000000      -0.23685746
2
Properties=species:S:1:pos:R:3:forces:R:3 energy=-10.351816657198757 pbc="F F F"
Ca       0.00000000       0.00000000       0.00000000       0.00000000       0.00000000       0.25142449
Ca       0.00000000       0.00000000       4.09292929       0.00000000       0.00000000      -0.25142449
2
Properties=species:S:1:pos:R:3:forces:R:3 energy=-10.336244477355153 pbc="F F F"
Ca       0.00000000       0.00000000       0.00000000       0.00000000       0.00000000       0.27213958
Ca       0.00000000       0.00000000       4.15252525       0.00000000       0.00000000      -0.27213958
2
Properties=species:S:1:pos:R:3:forces:R:3 energy=-10.319291296569919 pbc="F F F"
Ca       0.00000000       0.00000000       0.00000000       0.00000000       0.00000000       0.29723606
Ca       0.00000000       0.00000000       4.21212121       0.00000000       0.00000000      -0.29723606
2
Properties=species:S:1:pos:R:3:forces:R:3 energy=-10.300807948244724 pbc="F F F"
Ca       0.00000000       0.00000000       0.00000000       0.00000000       0.00000000       0.32274494
Ca       0.00000000       0.00000000       4.27171717       0.00000000       0.00000000      -0.32274494
2
Properties=species:S:1:pos:R:3:forces:R:3 energy=-10.28090171452821 pbc="F F F"
Ca       0.00000000       0.00000000       0.00000000       0.00000000       0.00000000       0.34428558
Ca       0.00000000       0.00000000       4.33131313       0.00000000       0.00000000      -0.34428558
2
Properties=species:S:1:pos:R:3:forces:R:3 energy=-10.259923012148521 pbc="F F F"
Ca       0.00000000       0.00000000       0.00000000       0.00000000       0.00000000       0.35824588
Ca       0.00000000       0.00000000       4.39090909       0.00000000       0.00000000      -0.35824588
2
Properties=species:S:1:pos:R:3:forces:R:3 energy=-10.23840115195894 pbc="F F F"
Ca       0.00000000       0.00000000       0.00000000       0.00000000       0.00000000       0.36222166
Ca       0.00000000       0.00000000       4.45050505       0.00000000       0.00000000      -0.36222166
2
Properties=species:S:1:pos:R:3:forces:R:3 energy=-10.216968505634767 pbc="F F F"
Ca       0.00000000       0.00000000       0.00000000       0.00000000       0.00000000       0.35520491
Ca       0.00000000       0.00000000       4.51010101       0.00000000       0.00000000      -0.35520491
2
Properties=species:S:1:pos:R:3:forces:R:3 energy=-10.196272518816908 pbc="F F F"
Ca       0.00000000       0.00000000       0.00000000       0.00000000       0.00000000       0.33770365
Ca       0.00000000       0.00000000       4.56969697       0.00000000       0.00000000      -0.33770365
2
Properties=species:S:1:pos:R:3:forces:R:3 energy=-10.17688698772222 pbc="F F F"
Ca       0.00000000       0.00000000       0.00000000       0.00000000       0.00000000       0.31166831
Ca       0.00000000       0.00000000       4.62929293       0.00000000       0.00000000      -0.31166831
2
Properties=species:S:1:pos:R:3:forces:R:3 energy=-10.159234738184434 pbc="F F F"
Ca       0.00000000       0.00000000       0.00000000       0.00000000       0.00000000       0.28011689
Ca       0.00000000       0.00000000       4.68888889       0.00000000       0.00000000      -0.28011689
2
Properties=species:S:1:pos:R:3:forces:R:3 energy=-10.143540936314782 pbc="F F F"
Ca       0.00000000       0.00000000       0.00000000       0.00000000       0.00000000       0.24646915
Ca       0.00000000       0.00000000       4.74848485       0.00000000       0.00000000      -0.24646915
2
Properties=species:S:1:pos:R:3:forces:R:3 energy=-10.129838186007385 pbc="F F F"
Ca       0.00000000       0.00000000       0.00000000       0.00000000       0.00000000       0.21377908
Ca       0.00000000       0.00000000       4.80808081       0.00000000       0.00000000      -0.21377908
2
Properties=species:S:1:pos:R:3:forces:R:3 energy=-10.117999637955746 pbc="F F F"
Ca       0.00000000       0.00000000       0.00000000       0.00000000       0.00000000       0.18407771
Ca       0.00000000       0.00000000       4.86767677       0.00000000       0.00000000      -0.18407771
2
Properties=species:S:1:pos:R:3:forces:R:3 energy=-10.107821100518775 pbc="F F F"
Ca       0.00000000       0.00000000       0.00000000       0.00000000       0.00000000       0.15814435
Ca       0.00000000       0.00000000       4.92727273       0.00000000       0.00000000      -0.15814435
2
Properties=species:S:1:pos:R:3:forces:R:3 energy=-10.099078957100641 pbc="F F F"
Ca       0.00000000       0.00000000       0.00000000       0.00000000       0.00000000       0.13577358
Ca       0.00000000       0.00000000       4.98686869       0.00000000       0.00000000      -0.13577358
2
Properties=species:S:1:pos:R:3:forces:R:3 energy=-10.091576449369514 pbc="F F F"
Ca       0.00000000       0.00000000       0.00000000       0.00000000       0.00000000       0.11656871
Ca       0.00000000       0.00000000       5.04646465       0.00000000       0.00000000      -0.11656871
2
Properties=species:S:1:pos:R:3:forces:R:3 energy=-10.0851153014469 pbc="F F F"
Ca       0.00000000       0.00000000       0.00000000       0.00000000       0.00000000       0.10098045
Ca       0.00000000       0.00000000       5.10606061       0.00000000       0.00000000      -0.10098045
2
Properties=species:S:1:pos:R:3:forces:R:3 energy=-10.079427308782638 pbc="F F F"
Ca       0.00000000       0.00000000       0.00000000       0.00000000       0.00000000       0.09110188
Ca       0.00000000       0.00000000       5.16565657       0.00000000       0.00000000      -0.09110188
2
Properties=species:S:1:pos:R:3:forces:R:3 energy=-10.074076287098352 pbc="F F F"
Ca       0.00000000       0.00000000       0.00000000       0.00000000       0.00000000       0.09021529
Ca       0.00000000       0.00000000       5.22525253       0.00000000       0.00000000      -0.09021529
2
Properties=species:S:1:pos:R:3:forces:R:3 energy=-10.068459016558295 pbc="F F F"
Ca       0.00000000       0.00000000       0.00000000       0.00000000       0.00000000       0.09997044
Ca       0.00000000       0.00000000       5.28484848       0.00000000       0.00000000      -0.09997044
2
Properties=species:S:1:pos:R:3:forces:R:3 energy=-10.062032374647767 pbc="F F F"
Ca       0.00000000       0.00000000       0.00000000       0.00000000       0.00000000       0.11594895
Ca       0.00000000       0.00000000       5.34444444       0.00000000       0.00000000      -0.11594895
2
Properties=species:S:1:pos:R:3:forces:R:3 energy=-10.054706211977603 pbc="F F F"
Ca       0.00000000       0.00000000       0.00000000       0.00000000       0.00000000       0.12879424
Ca       0.00000000       0.00000000       5.40404040       0.00000000       0.00000000      -0.12879424
2
Properties=species:S:1:pos:R:3:forces:R:3 energy=-10.046759517643354 pbc="F F F"
Ca       0.00000000       0.00000000       0.00000000       0.00000000       0.00000000       0.13832514
Ca       0.00000000       0.00000000       5.46363636       0.00000000       0.00000000      -0.13832514
2
Properties=species:S:1:pos:R:3:forces:R:3 energy=-10.037990714416301 pbc="F F F"
Ca       0.00000000       0.00000000       0.00000000       0.00000000       0.00000000       0.15869024
Ca       0.00000000       0.00000000       5.52323232       0.00000000       0.00000000      -0.15869024
2
Properties=species:S:1:pos:R:3:forces:R:3 energy=-10.027719509071288 pbc="F F F"
Ca       0.00000000       0.00000000       0.00000000       0.00000000       0.00000000       0.18454969
Ca       0.00000000       0.00000000       5.58282828       0.00000000       0.00000000      -0.18454969
2
Properties=species:S:1:pos:R:3:forces:R:3 energy=-10.016356690996679 pbc="F F F"
Ca       0.00000000       0.00000000       0.00000000       0.00000000       0.00000000       0.19395451
Ca       0.00000000       0.00000000       5.64242424       0.00000000       0.00000000      -0.19395451
2
Properties=species:S:1:pos:R:3:forces:R:3 energy=-10.004614496196023 pbc="F F F"
Ca       0.00000000       0.00000000       0.00000000       0.00000000       0.00000000       0.20315813
Ca       0.00000000       0.00000000       5.70202020       0.00000000       0.00000000      -0.20315813
2
Properties=species:S:1:pos:R:3:forces:R:3 energy=-9.991526722386395 pbc="F F F"
Ca       0.00000000       0.00000000       0.00000000       0.00000000       0.00000000       0.24064022
Ca       0.00000000       0.00000000       5.76161616       0.00000000       0.00000000      -0.24064022
2
Properties=species:S:1:pos:R:3:forces:R:3 energy=-9.97626645125239 pbc="F F F"
Ca       0.00000000       0.00000000       0.00000000       0.00000000       0.00000000       0.25933829
Ca       0.00000000       0.00000000       5.82121212       0.00000000       0.00000000      -0.25933829
2
Properties=species:S:1:pos:R:3:forces:R:3 energy=-9.962670279403174 pbc="F F F"
Ca       0.00000000       0.00000000       0.00000000       0.00000000       0.00000000       0.18260701
Ca       0.00000000       0.00000000       5.88080808       0.00000000       0.00000000      -0.18260701
2
Properties=species:S:1:pos:R:3:forces:R:3 energy=-9.955315792552636 pbc="F F F"
Ca       0.00000000       0.00000000       0.00000000       0.00000000       0.00000000       0.06461502
Ca       0.00000000       0.00000000       5.94040404       0.00000000       0.00000000      -0.06461502
2
Properties=species:S:1:pos:R:3:forces:R:3 energy=-9.953546849780105 pbc="F F F"
Ca       0.00000000       0.00000000       0.00000000       0.00000000       0.00000000       0.01232663
Ca       0.00000000       0.00000000       6.00000000       0.00000000       0.00000000      -0.01232663
