2
Properties=species:S:1:pos:R:3:forces:R:3 energy=50138.97758252761 pbc="F F F"
Dy       0.00000000       0.00000000       0.00000000       0.00000000       0.00000000 -1623382.50000000
Dy       0.00000000       0.00000000       0.10000000       0.00000000       0.00000000 1623382.50000000
2
Properties=species:S:1:pos:R:3:forces:R:3 energy=3232.989301277611 pbc="F F F"
Dy       0.00000000       0.00000000       0.00000000       0.00000000       0.00000000 -339179.18750000
Dy       0.00000000       0.00000000       0.15959596       0.00000000       0.00000000  339179.18750000
2
Properties=species:S:1:pos:R:3:forces:R:3 energy=-8285.26558153489 pbc="F F F"
Dy       0.00000000       0.00000000       0.00000000       0.00000000       0.00000000 -101642.35937500
Dy       0.00000000       0.00000000       0.21919192       0.00000000       0.00000000  101642.35937500
2
Properties=species:S:1:pos:R:3:forces:R:3 energy=-11993.51167528489 pbc="F F F"
Dy       0.00000000       0.00000000       0.00000000       0.00000000       0.00000000  -34739.56640625
Dy       0.00000000       0.00000000       0.27878788       0.00000000       0.00000000   34739.56640625
2
Properties=species:S:1:pos:R:3:forces:R:3 energy=-13196.91304247239 pbc="F F F"
Dy       0.00000000       0.00000000       0.00000000       0.00000000       0.00000000   -8975.70214844
Dy       0.00000000       0.00000000       0.33838384       0.00000000       0.00000000    8975.70214844
2
Properties=species:S:1:pos:R:3:forces:R:3 energy=-13287.19526903489 pbc="F F F"
Dy       0.00000000       0.00000000       0.00000000       0.00000000       0.00000000    4982.05371094
Dy       0.00000000       0.00000000       0.39797980       0.00000000       0.00000000   -4982.05371094
2
Properties=species:S:1:pos:R:3:forces:R:3 energy=-12664.829058094221 pbc="F F F"
Dy       0.00000000       0.00000000       0.00000000       0.00000000       0.00000000   15662.10742188
Dy       0.00000000       0.00000000       0.45757576       0.00000000       0.00000000  -15662.10742188
2
Properties=species:S:1:pos:R:3:forces:R:3 energy=-11435.802690906721 pbc="F F F"
Dy       0.00000000       0.00000000       0.00000000       0.00000000       0.00000000   25486.27343750
Dy       0.00000000       0.00000000       0.51717172       0.00000000       0.00000000  -25486.27343750
2
Properties=species:S:1:pos:R:3:forces:R:3 energy=-9647.990190906721 pbc="F F F"
Dy       0.00000000       0.00000000       0.00000000       0.00000000       0.00000000   34208.61718750
Dy       0.00000000       0.00000000       0.57676768       0.00000000       0.00000000  -34208.61718750
2
Properties=species:S:1:pos:R:3:forces:R:3 energy=-7583.410601056636 pbc="F F F"
Dy       0.00000000       0.00000000       0.00000000       0.00000000       0.00000000   35889.01171875
Dy       0.00000000       0.00000000       0.63636364       0.00000000       0.00000000  -35889.01171875
2
Properties=species:S:1:pos:R:3:forces:R:3 energy=-5321.0316948003 pbc="F F F"
Dy       0.00000000       0.00000000       0.00000000       0.00000000       0.00000000   39001.69921875
Dy       0.00000000       0.00000000       0.69595960       0.00000000       0.00000000  -39001.69921875
2
Properties=species:S:1:pos:R:3:forces:R:3 energy=-3086.3927787720036 pbc="F F F"
Dy       0.00000000       0.00000000       0.00000000       0.00000000       0.00000000   34591.38281250
Dy       0.00000000       0.00000000       0.75555556       0.00000000       0.00000000  -34591.38281250
2
Properties=species:S:1:pos:R:3:forces:R:3 energy=-1352.3566459436645 pbc="F F F"
Dy       0.00000000       0.00000000       0.00000000       0.00000000       0.00000000   22693.69726562
Dy       0.00000000       0.00000000       0.81515152       0.00000000       0.00000000  -22693.69726562
2
Properties=species:S:1:pos:R:3:forces:R:3 energy=-400.1652701890679 pbc="F F F"
Dy       0.00000000       0.00000000       0.00000000       0.00000000       0.00000000    9601.64648438
Dy       0.00000000       0.00000000       0.87474747       0.00000000       0.00000000   -9601.64648438
2
Properties=species:S:1:pos:R:3:forces:R:3 energy=-107.29178077750686 pbc="F F F"
Dy       0.00000000       0.00000000       0.00000000       0.00000000       0.00000000    3035.66308594
Dy       0.00000000       0.00000000       0.93434343       0.00000000       0.00000000   -3035.66308594
2
Properties=species:S:1:pos:R:3:forces:R:3 energy=-61.21543337891531 pbc="F F F"
Dy       0.00000000       0.00000000       0.00000000       0.00000000       0.00000000     -94.68608856
Dy       0.00000000       0.00000000       0.99393939       0.00000000       0.00000000      94.68608856
2
Properties=species:S:1:pos:R:3:forces:R:3 energy=-62.198896606080204 pbc="F F F"
Dy       0.00000000       0.00000000       0.00000000       0.00000000       0.00000000      -7.34143877
Dy       0.00000000       0.00000000       1.05353535       0.00000000       0.00000000       7.34143877
2
Properties=species:S:1:pos:R:3:forces:R:3 energy=-62.89508640725575 pbc="F F F"
Dy       0.00000000       0.00000000       0.00000000       0.00000000       0.00000000     -14.98362160
Dy       0.00000000       0.00000000       1.11313131       0.00000000       0.00000000      14.98362160
2
Properties=species:S:1:pos:R:3:forces:R:3 energy=-63.756860747297694 pbc="F F F"
Dy       0.00000000       0.00000000       0.00000000       0.00000000       0.00000000     -12.69346523
Dy       0.00000000       0.00000000       1.17272727       0.00000000       0.00000000      12.69346523
2
Properties=species:S:1:pos:R:3:forces:R:3 energy=-64.36060511474945 pbc="F F F"
Dy       0.00000000       0.00000000       0.00000000       0.00000000       0.00000000      -7.67283392
Dy       0.00000000       0.00000000       1.23232323       0.00000000       0.00000000       7.67283392
2
Properties=species:S:1:pos:R:3:forces:R:3 energy=-64.73455971346846 pbc="F F F"
Dy       0.00000000       0.00000000       0.00000000       0.00000000       0.00000000      -5.67950249
Dy       0.00000000       0.00000000       1.29191919       0.00000000       0.00000000       5.67950249
2
Properties=species:S:1:pos:R:3:forces:R:3 energy=-65.11397691432232 pbc="F F F"
Dy       0.00000000       0.00000000       0.00000000       0.00000000       0.00000000      -7.37422276
Dy       0.00000000       0.00000000       1.35151515       0.00000000       0.00000000       7.37422276
2
Properties=species:S:1:pos:R:3:forces:R:3 energy=-65.61949268780006 pbc="F F F"
Dy       0.00000000       0.00000000       0.00000000       0.00000000       0.00000000      -9.47654533
Dy       0.00000000       0.00000000       1.41111111       0.00000000       0.00000000       9.47654533
2
Properties=species:S:1:pos:R:3:forces:R:3 energy=-66.2236793542262 pbc="F F F"
Dy       0.00000000       0.00000000       0.00000000       0.00000000       0.00000000     -10.61381435
Dy       0.00000000       0.00000000       1.47070707       0.00000000       0.00000000      10.61381435
2
Properties=species:S:1:pos:R:3:forces:R:3 energy=-66.86203037333554 pbc="F F F"
Dy       0.00000000       0.00000000       0.00000000       0.00000000       0.00000000     -10.62083054
Dy       0.00000000       0.00000000       1.53030303       0.00000000       0.00000000      10.62083054
2
Properties=species:S:1:pos:R:3:forces:R:3 energy=-67.46876508964054 pbc="F F F"
Dy       0.00000000       0.00000000       0.00000000       0.00000000       0.00000000      -9.59224892
Dy       0.00000000       0.00000000       1.58989899       0.00000000       0.00000000       9.59224892
2
Properties=species:S:1:pos:R:3:forces:R:3 energy=-67.99346081567724 pbc="F F F"
Dy       0.00000000       0.00000000       0.00000000       0.00000000       0.00000000      -7.97646523
Dy       0.00000000       0.00000000       1.64949495       0.00000000       0.00000000       7.97646523
2
Properties=species:S:1:pos:R:3:forces:R:3 energy=-68.42188108224337 pbc="F F F"
Dy       0.00000000       0.00000000       0.00000000       0.00000000       0.00000000      -6.46748972
Dy       0.00000000       0.00000000       1.70909091       0.00000000       0.00000000       6.46748972
2
Properties=species:S:1:pos:R:3:forces:R:3 energy=-68.77417510445689 pbc="F F F"
Dy       0.00000000       0.00000000       0.00000000       0.00000000       0.00000000      -5.43574286
Dy       0.00000000       0.00000000       1.76868687       0.00000000       0.00000000       5.43574286
2
Properties=species:S:1:pos:R:3:forces:R:3 energy=-69.07740431937754 pbc="F F F"
Dy       0.00000000       0.00000000       0.00000000       0.00000000       0.00000000      -4.78486300
Dy       0.00000000       0.00000000       1.82828283       0.00000000       0.00000000       4.78486300
2
Properties=species:S:1:pos:R:3:forces:R:3 energy=-69.34710977515508 pbc="F F F"
Dy       0.00000000       0.00000000       0.00000000       0.00000000       0.00000000      -4.26387119
Dy       0.00000000       0.00000000       1.88787879       0.00000000       0.00000000       4.26387119
2
Properties=species:S:1:pos:R:3:forces:R:3 energy=-69.58263532485287 pbc="F F F"
Dy       0.00000000       0.00000000       0.00000000       0.00000000       0.00000000      -3.59889102
Dy       0.00000000       0.00000000       1.94747475       0.00000000       0.00000000       3.59889102
2
Properties=species:S:1:pos:R:3:forces:R:3 energy=-69.77111776810959 pbc="F F F"
Dy       0.00000000       0.00000000       0.00000000       0.00000000       0.00000000      -2.69690442
Dy       0.00000000       0.00000000       2.00707071       0.00000000       0.00000000       2.69690442
2
Properties=species:S:1:pos:R:3:forces:R:3 energy=-69.90352386378632 pbc="F F F"
Dy       0.00000000       0.00000000       0.00000000       0.00000000       0.00000000      -1.76891911
Dy       0.00000000       0.00000000       2.06666667       0.00000000       0.00000000       1.76891911
2
Properties=species:S:1:pos:R:3:forces:R:3 energy=-69.9873456519702 pbc="F F F"
Dy       0.00000000       0.00000000       0.00000000       0.00000000       0.00000000      -1.10499752
Dy       0.00000000       0.00000000       2.12626263       0.00000000       0.00000000       1.10499752
2
Properties=species:S:1:pos:R:3:forces:R:3 energy=-70.04286964203466 pbc="F F F"
Dy       0.00000000       0.00000000       0.00000000       0.00000000       0.00000000      -0.81894255
Dy       0.00000000       0.00000000       2.18585859       0.00000000       0.00000000       0.81894255
2
Properties=species:S:1:pos:R:3:forces:R:3 energy=-70.09109950643906 pbc="F F F"
Dy       0.00000000       0.00000000       0.00000000       0.00000000       0.00000000      -0.84086472
Dy       0.00000000       0.00000000       2.24545455       0.00000000       0.00000000       0.84086472
2
Properties=species:S:1:pos:R:3:forces:R:3 energy=-70.14692777262329 pbc="F F F"
Dy       0.00000000       0.00000000       0.00000000       0.00000000       0.00000000      -1.05726683
Dy       0.00000000       0.00000000       2.30505051       0.00000000       0.00000000       1.05726683
2
Properties=species:S:1:pos:R:3:forces:R:3 energy=-70.21930367285513 pbc="F F F"
Dy       0.00000000       0.00000000       0.00000000       0.00000000       0.00000000      -1.38439429
Dy       0.00000000       0.00000000       2.36464646       0.00000000       0.00000000       1.38439429
2
Properties=species:S:1:pos:R:3:forces:R:3 energy=-70.3127590009619 pbc="F F F"
Dy       0.00000000       0.00000000       0.00000000       0.00000000       0.00000000      -1.75263226
Dy       0.00000000       0.00000000       2.42424242       0.00000000       0.00000000       1.75263226
2
Properties=species:S:1:pos:R:3:forces:R:3 energy=-70.42752256591962 pbc="F F F"
Dy       0.00000000       0.00000000       0.00000000       0.00000000       0.00000000      -2.08667707
Dy       0.00000000       0.00000000       2.48383838       0.00000000       0.00000000       2.08667707
2
Properties=species:S:1:pos:R:3:forces:R:3 energy=-70.55937524919607 pbc="F F F"
Dy       0.00000000       0.00000000       0.00000000       0.00000000       0.00000000      -2.31580138
Dy       0.00000000       0.00000000       2.54343434       0.00000000       0.00000000       2.31580138
2
Properties=species:S:1:pos:R:3:forces:R:3 energy=-70.70054260906488 pbc="F F F"
Dy       0.00000000       0.00000000       0.00000000       0.00000000       0.00000000      -2.39485455
Dy       0.00000000       0.00000000       2.60303030       0.00000000       0.00000000       2.39485455
2
Properties=species:S:1:pos:R:3:forces:R:3 energy=-70.84161752604129 pbc="F F F"
Dy       0.00000000       0.00000000       0.00000000       0.00000000       0.00000000      -2.31371045
Dy       0.00000000       0.00000000       2.66262626       0.00000000       0.00000000       2.31371045
2
Properties=species:S:1:pos:R:3:forces:R:3 energy=-70.97350564146682 pbc="F F F"
Dy       0.00000000       0.00000000       0.00000000       0.00000000       0.00000000      -2.09146857
Dy       0.00000000       0.00000000       2.72222222       0.00000000       0.00000000       2.09146857
2
Properties=species:S:1:pos:R:3:forces:R:3 energy=-71.08882166658915 pbc="F F F"
Dy       0.00000000       0.00000000       0.00000000       0.00000000       0.00000000      -1.76473200
Dy       0.00000000       0.00000000       2.78181818       0.00000000       0.00000000       1.76473200
2
Properties=species:S:1:pos:R:3:forces:R:3 energy=-71.18264447087327 pbc="F F F"
Dy       0.00000000       0.00000000       0.00000000       0.00000000       0.00000000      -1.37756371
Dy       0.00000000       0.00000000       2.84141414       0.00000000       0.00000000       1.37756371
2
Properties=species:S:1:pos:R:3:forces:R:3 energy=-71.2526927671518 pbc="F F F"
Dy       0.00000000       0.00000000       0.00000000       0.00000000       0.00000000      -0.97378743
Dy       0.00000000       0.00000000       2.90101010       0.00000000       0.00000000       0.97378743
2
Properties=species:S:1:pos:R:3:forces:R:3 energy=-71.29911905144856 pbc="F F F"
Dy       0.00000000       0.00000000       0.00000000       0.00000000       0.00000000      -0.59020752
Dy       0.00000000       0.00000000       2.96060606       0.00000000       0.00000000       0.59020752
2
Properties=species:S:1:pos:R:3:forces:R:3 energy=-71.32394495175538 pbc="F F F"
Dy       0.00000000       0.00000000       0.00000000       0.00000000       0.00000000      -0.25183794
Dy       0.00000000       0.00000000       3.02020202       0.00000000       0.00000000       0.25183794
2
Properties=species:S:1:pos:R:3:forces:R:3 energy=-71.33029072887662 pbc="F F F"
Dy       0.00000000       0.00000000       0.00000000       0.00000000       0.00000000       0.02905209
Dy       0.00000000       0.00000000       3.07979798       0.00000000       0.00000000      -0.02905209
2
Properties=species:S:1:pos:R:3:forces:R:3 energy=-71.32167345449564 pbc="F F F"
Dy       0.00000000       0.00000000       0.00000000       0.00000000       0.00000000       0.25027987
Dy       0.00000000       0.00000000       3.13939394       0.00000000       0.00000000      -0.25027987
2
Properties=species:S:1:pos:R:3:forces:R:3 energy=-71.30156425920184 pbc="F F F"
Dy       0.00000000       0.00000000       0.00000000       0.00000000       0.00000000       0.41560480
Dy       0.00000000       0.00000000       3.19898990       0.00000000       0.00000000      -0.41560480
2
Properties=species:S:1:pos:R:3:forces:R:3 energy=-71.27312922451627 pbc="F F F"
Dy       0.00000000       0.00000000       0.00000000       0.00000000       0.00000000       0.53105205
Dy       0.00000000       0.00000000       3.25858586       0.00000000       0.00000000      -0.53105205
2
Properties=species:S:1:pos:R:3:forces:R:3 energy=-71.23913760207405 pbc="F F F"
Dy       0.00000000       0.00000000       0.00000000       0.00000000       0.00000000       0.60302991
Dy       0.00000000       0.00000000       3.31818182       0.00000000       0.00000000      -0.60302991
2
Properties=species:S:1:pos:R:3:forces:R:3 energy=-71.20197718328721 pbc="F F F"
Dy       0.00000000       0.00000000       0.00000000       0.00000000       0.00000000       0.63831466
Dy       0.00000000       0.00000000       3.37777778       0.00000000       0.00000000      -0.63831466
2
Properties=species:S:1:pos:R:3:forces:R:3 energy=-71.16363139215413 pbc="F F F"
Dy       0.00000000       0.00000000       0.00000000       0.00000000       0.00000000       0.64469516
Dy       0.00000000       0.00000000       3.43737374       0.00000000       0.00000000      -0.64469516
2
Properties=species:S:1:pos:R:3:forces:R:3 energy=-71.12554195299022 pbc="F F F"
Dy       0.00000000       0.00000000       0.00000000       0.00000000       0.00000000       0.63092345
Dy       0.00000000       0.00000000       3.49696970       0.00000000       0.00000000      -0.63092345
2
Properties=species:S:1:pos:R:3:forces:R:3 energy=-71.08865465729156 pbc="F F F"
Dy       0.00000000       0.00000000       0.00000000       0.00000000       0.00000000       0.60553181
Dy       0.00000000       0.00000000       3.55656566       0.00000000       0.00000000      -0.60553181
2
Properties=species:S:1:pos:R:3:forces:R:3 energy=-71.0534575645606 pbc="F F F"
Dy       0.00000000       0.00000000       0.00000000       0.00000000       0.00000000       0.57532829
Dy       0.00000000       0.00000000       3.61616162       0.00000000       0.00000000      -0.57532829
2
Properties=species:S:1:pos:R:3:forces:R:3 energy=-71.02009536402856 pbc="F F F"
Dy       0.00000000       0.00000000       0.00000000       0.00000000       0.00000000       0.54445577
Dy       0.00000000       0.00000000       3.67575758       0.00000000       0.00000000      -0.54445577
2
Properties=species:S:1:pos:R:3:forces:R:3 energy=-70.98854492042173 pbc="F F F"
Dy       0.00000000       0.00000000       0.00000000       0.00000000       0.00000000       0.51442826
Dy       0.00000000       0.00000000       3.73535354       0.00000000       0.00000000      -0.51442826
2
Properties=species:S:1:pos:R:3:forces:R:3 energy=-70.95876780166344 pbc="F F F"
Dy       0.00000000       0.00000000       0.00000000       0.00000000       0.00000000       0.48487189
Dy       0.00000000       0.00000000       3.79494949       0.00000000       0.00000000      -0.48487189
2
Properties=species:S:1:pos:R:3:forces:R:3 energy=-70.93077133937295 pbc="F F F"
Dy       0.00000000       0.00000000       0.00000000       0.00000000       0.00000000       0.45457125
Dy       0.00000000       0.00000000       3.85454545       0.00000000       0.00000000      -0.45457125
2
Properties=species:S:1:pos:R:3:forces:R:3 energy=-70.90462389082231 pbc="F F F"
Dy       0.00000000       0.00000000       0.00000000       0.00000000       0.00000000       0.42258313
Dy       0.00000000       0.00000000       3.91414141       0.00000000       0.00000000      -0.42258313
2
Properties=species:S:1:pos:R:3:forces:R:3 energy=-70.88042431502252 pbc="F F F"
Dy       0.00000000       0.00000000       0.00000000       0.00000000       0.00000000       0.38920385
Dy       0.00000000       0.00000000       3.97373737       0.00000000       0.00000000      -0.38920385
2
Properties=species:S:1:pos:R:3:forces:R:3 energy=-70.85821805571949 pbc="F F F"
Dy       0.00000000       0.00000000       0.00000000       0.00000000       0.00000000       0.35656816
Dy       0.00000000       0.00000000       4.03333333       0.00000000       0.00000000      -0.35656816
2
Properties=species:S:1:pos:R:3:forces:R:3 energy=-70.83783692727654 pbc="F F F"
Dy       0.00000000       0.00000000       0.00000000       0.00000000       0.00000000       0.32856417
Dy       0.00000000       0.00000000       4.09292929       0.00000000       0.00000000      -0.32856417
2
Properties=species:S:1:pos:R:3:forces:R:3 energy=-70.81886857492161 pbc="F F F"
Dy       0.00000000       0.00000000       0.00000000       0.00000000       0.00000000       0.30997854
Dy       0.00000000       0.00000000       4.15252525       0.00000000       0.00000000      -0.30997854
2
Properties=species:S:1:pos:R:3:forces:R:3 energy=-70.800618356285 pbc="F F F"
Dy       0.00000000       0.00000000       0.00000000       0.00000000       0.00000000       0.30511609
Dy       0.00000000       0.00000000       4.21212121       0.00000000       0.00000000      -0.30511609
2
Properties=species:S:1:pos:R:3:forces:R:3 energy=-70.78217801228575 pbc="F F F"
Dy       0.00000000       0.00000000       0.00000000       0.00000000       0.00000000       0.31634822
Dy       0.00000000       0.00000000       4.27171717       0.00000000       0.00000000      -0.31634822
2
Properties=species:S:1:pos:R:3:forces:R:3 energy=-70.76260110519206 pbc="F F F"
Dy       0.00000000       0.00000000       0.00000000       0.00000000       0.00000000       0.34303111
Dy       0.00000000       0.00000000       4.33131313       0.00000000       0.00000000      -0.34303111
2
Properties=species:S:1:pos:R:3:forces:R:3 energy=-70.74106327392025 pbc="F F F"
Dy       0.00000000       0.00000000       0.00000000       0.00000000       0.00000000       0.38109195
Dy       0.00000000       0.00000000       4.39090909       0.00000000       0.00000000      -0.38109195
2
Properties=species:S:1:pos:R:3:forces:R:3 energy=-70.71709110319941 pbc="F F F"
Dy       0.00000000       0.00000000       0.00000000       0.00000000       0.00000000       0.42339659
Dy       0.00000000       0.00000000       4.45050505       0.00000000       0.00000000      -0.42339659
2
Properties=species:S:1:pos:R:3:forces:R:3 energy=-70.69069182961415 pbc="F F F"
Dy       0.00000000       0.00000000       0.00000000       0.00000000       0.00000000       0.46091279
Dy       0.00000000       0.00000000       4.51010101       0.00000000       0.00000000      -0.46091279
2
Properties=species:S:1:pos:R:3:forces:R:3 energy=-70.66242961971072 pbc="F F F"
Dy       0.00000000       0.00000000       0.00000000       0.00000000       0.00000000       0.48453301
Dy       0.00000000       0.00000000       4.56969697       0.00000000       0.00000000      -0.48453301
2
Properties=species:S:1:pos:R:3:forces:R:3 energy=-70.63335694662794 pbc="F F F"
Dy       0.00000000       0.00000000       0.00000000       0.00000000       0.00000000       0.48721090
Dy       0.00000000       0.00000000       4.62929293       0.00000000       0.00000000      -0.48721090
2
Properties=species:S:1:pos:R:3:forces:R:3 energy=-70.60483907600916 pbc="F F F"
Dy       0.00000000       0.00000000       0.00000000       0.00000000       0.00000000       0.46588227
Dy       0.00000000       0.00000000       4.68888889       0.00000000       0.00000000      -0.46588227
2
Properties=species:S:1:pos:R:3:forces:R:3 energy=-70.57827181008274 pbc="F F F"
Dy       0.00000000       0.00000000       0.00000000       0.00000000       0.00000000       0.42246714
Dy       0.00000000       0.00000000       4.74848485       0.00000000       0.00000000      -0.42246714
2
Properties=species:S:1:pos:R:3:forces:R:3 energy=-70.55479918422537 pbc="F F F"
Dy       0.00000000       0.00000000       0.00000000       0.00000000       0.00000000       0.36349040
Dy       0.00000000       0.00000000       4.80808081       0.00000000       0.00000000      -0.36349040
2
Properties=species:S:1:pos:R:3:forces:R:3 energy=-70.53506933584048 pbc="F F F"
Dy       0.00000000       0.00000000       0.00000000       0.00000000       0.00000000       0.29821143
Dy       0.00000000       0.00000000       4.86767677       0.00000000       0.00000000      -0.29821143
2
Properties=species:S:1:pos:R:3:forces:R:3 energy=-70.51918873432669 pbc="F F F"
Dy       0.00000000       0.00000000       0.00000000       0.00000000       0.00000000       0.23597546
Dy       0.00000000       0.00000000       4.92727273       0.00000000       0.00000000      -0.23597546
2
Properties=species:S:1:pos:R:3:forces:R:3 energy=-70.50674507559714 pbc="F F F"
Dy       0.00000000       0.00000000       0.00000000       0.00000000       0.00000000       0.18370052
Dy       0.00000000       0.00000000       4.98686869       0.00000000       0.00000000      -0.18370052
2
Properties=species:S:1:pos:R:3:forces:R:3 energy=-70.49702853768856 pbc="F F F"
Dy       0.00000000       0.00000000       0.00000000       0.00000000       0.00000000       0.14452659
Dy       0.00000000       0.00000000       5.04646465       0.00000000       0.00000000      -0.14452659
2
Properties=species:S:1:pos:R:3:forces:R:3 energy=-70.48926828248847 pbc="F F F"
Dy       0.00000000       0.00000000       0.00000000       0.00000000       0.00000000       0.11804494
Dy       0.00000000       0.00000000       5.10606061       0.00000000       0.00000000      -0.11804494
2
Properties=species:S:1:pos:R:3:forces:R:3 energy=-70.48275455139003 pbc="F F F"
Dy       0.00000000       0.00000000       0.00000000       0.00000000       0.00000000       0.10192753
Dy       0.00000000       0.00000000       5.16565657       0.00000000       0.00000000      -0.10192753
2
Properties=species:S:1:pos:R:3:forces:R:3 energy=-70.47696072768521 pbc="F F F"
Dy       0.00000000       0.00000000       0.00000000       0.00000000       0.00000000       0.09380520
Dy       0.00000000       0.00000000       5.22525253       0.00000000       0.00000000      -0.09380520
2
Properties=species:S:1:pos:R:3:forces:R:3 energy=-70.47144415918744 pbc="F F F"
Dy       0.00000000       0.00000000       0.00000000       0.00000000       0.00000000       0.09215132
Dy       0.00000000       0.00000000       5.28484848       0.00000000       0.00000000      -0.09215132
2
Properties=species:S:1:pos:R:3:forces:R:3 energy=-70.4658690559188 pbc="F F F"
Dy       0.00000000       0.00000000       0.00000000       0.00000000       0.00000000       0.09602186
Dy       0.00000000       0.00000000       5.34444444       0.00000000       0.00000000      -0.09602186
2
Properties=species:S:1:pos:R:3:forces:R:3 energy=-70.45989967541864 pbc="F F F"
Dy       0.00000000       0.00000000       0.00000000       0.00000000       0.00000000       0.10516365
Dy       0.00000000       0.00000000       5.40404040       0.00000000       0.00000000      -0.10516365
2
Properties=species:S:1:pos:R:3:forces:R:3 energy=-70.45323085774484 pbc="F F F"
Dy       0.00000000       0.00000000       0.00000000       0.00000000       0.00000000       0.11911557
Dy       0.00000000       0.00000000       5.46363636       0.00000000       0.00000000      -0.11911557
2
Properties=species:S:1:pos:R:3:forces:R:3 energy=-70.44571008469885 pbc="F F F"
Dy       0.00000000       0.00000000       0.00000000       0.00000000       0.00000000       0.13260037
Dy       0.00000000       0.00000000       5.52323232       0.00000000       0.00000000      -0.13260037
2
Properties=species:S:1:pos:R:3:forces:R:3 energy=-70.43765792865126 pbc="F F F"
Dy       0.00000000       0.00000000       0.00000000       0.00000000       0.00000000       0.13463540
Dy       0.00000000       0.00000000       5.58282828       0.00000000       0.00000000      -0.13463540
2
Properties=species:S:1:pos:R:3:forces:R:3 energy=-70.42997485297781 pbc="F F F"
Dy       0.00000000       0.00000000       0.00000000       0.00000000       0.00000000       0.12164421
Dy       0.00000000       0.00000000       5.64242424       0.00000000       0.00000000      -0.12164421
2
Properties=species:S:1:pos:R:3:forces:R:3 energy=-70.42311126914028 pbc="F F F"
Dy       0.00000000       0.00000000       0.00000000       0.00000000       0.00000000       0.11119993
Dy       0.00000000       0.00000000       5.70202020       0.00000000       0.00000000      -0.11119993
2
Properties=species:S:1:pos:R:3:forces:R:3 energy=-70.41629694566407 pbc="F F F"
Dy       0.00000000       0.00000000       0.00000000       0.00000000       0.00000000       0.12076315
Dy       0.00000000       0.00000000       5.76161616       0.00000000       0.00000000      -0.12076315
2
Properties=species:S:1:pos:R:3:forces:R:3 energy=-70.40876935174514 pbc="F F F"
Dy       0.00000000       0.00000000       0.00000000       0.00000000       0.00000000       0.12660336
Dy       0.00000000       0.00000000       5.82121212       0.00000000       0.00000000      -0.12660336
2
Properties=species:S:1:pos:R:3:forces:R:3 energy=-70.40214641003651 pbc="F F F"
Dy       0.00000000       0.00000000       0.00000000       0.00000000       0.00000000       0.08884816
Dy       0.00000000       0.00000000       5.88080808       0.00000000       0.00000000      -0.08884816
2
Properties=species:S:1:pos:R:3:forces:R:3 energy=-70.39854963074764 pbc="F F F"
Dy       0.00000000       0.00000000       0.00000000       0.00000000       0.00000000       0.03211646
Dy       0.00000000       0.00000000       5.94040404       0.00000000       0.00000000      -0.03211646
2
Properties=species:S:1:pos:R:3:forces:R:3 energy=-70.39763631676952 pbc="F F F"
Dy       0.00000000       0.00000000       0.00000000       0.00000000       0.00000000       0.00708159
Dy       0.00000000       0.00000000       6.00000000       0.00000000       0.00000000      -0.00708159
